*SPEF "IEEE 1481-1998"
*DESIGN "dac_digital_interface"
*DATE "Sun May 16 11:10:31 2021"
*VENDOR "AUC CSCE Department"
*PROGRAM "SPEF Extractor"
*VERSION "1.0"
*DESIGN_FLOW "PIN_CAP NONE"
*DIVIDER /
*DELIMITER :
*BUS_DELIMITER []
*T_UNIT 1.00000 NS
*C_UNIT 1.00000 PF
*R_UNIT 1.00000 OHM
*L_UNIT 1.00000 HENRY


*NAME_MAP
*0 output_thermometer_o[69]
*1 output_thermometer_o[112]
*2 output_thermometer_o[244]
*3 output_thermometer_o[83]
*4 output_thermometer_o[54]
*5 output_thermometer_o[166]
*6 output_thermometer_o[200]
*7 output_thermometer_o[17]
*8 output_thermometer_o[195]
*9 output_thermometer_o[15]
*10 output_thermometer_o[130]
*11 output_thermometer_o[229]
*12 output_thermometer_o[82]
*13 output_thermometer_o[4]
*14 output_thermometer_o[245]
*15 output_thermometer_o[61]
*16 output_thermometer_o[197]
*17 output_thermometer_o[101]
*18 output_thermometer_o[251]
*19 output_thermometer_o[213]
*20 output_thermometer_o[72]
*21 output_thermometer_o[43]
*22 output_thermometer_o[230]
*23 output_thermometer_o[134]
*24 output_thermometer_o[115]
*25 output_thermometer_o[212]
*26 output_thermometer_o[151]
*27 output_thermometer_o[236]
*28 output_thermometer_o[105]
*29 output_thermometer_o[174]
*30 output_thermometer_o[196]
*31 output_thermometer_o[57]
*32 output_thermometer_o[76]
*33 output_thermometer_o[142]
*34 output_thermometer_o[241]
*35 output_thermometer_o[110]
*36 output_thermometer_o[123]
*37 output_thermometer_o[81]
*38 output_thermometer_o[242]
*39 output_thermometer_o[14]
*40 output_thermometer_o[218]
*41 output_thermometer_o[250]
*42 output_thermometer_o[94]
*43 output_thermometer_o[129]
*44 output_thermometer_o[9]
*45 output_thermometer_o[117]
*46 output_thermometer_o[179]
*47 output_thermometer_o[73]
*48 output_thermometer_o[86]
*49 output_thermometer_o[215]
*50 output_thermometer_o[182]
*51 output_thermometer_o[12]
*52 output_thermometer_o[96]
*53 output_thermometer_o[132]
*54 output_thermometer_o[29]
*55 output_thermometer_o[232]
*56 output_thermometer_o[191]
*57 output_thermometer_o[5]
*58 output_thermometer_o[33]
*59 output_thermometer_o[161]
*60 output_thermometer_o[11]
*61 output_thermometer_o[160]
*62 output_thermometer_o[208]
*63 output_thermometer_o[47]
*64 output_thermometer_o[187]
*65 output_thermometer_o[79]
*66 output_thermometer_o[59]
*67 output_thermometer_o[116]
*68 output_thermometer_o[30]
*69 output_thermometer_o[194]
*70 output_thermometer_o[235]
*71 output_thermometer_o[227]
*72 output_thermometer_o[97]
*73 output_thermometer_o[67]
*74 output_thermometer_o[188]
*75 output_thermometer_o[31]
*76 output_thermometer_o[185]
*77 output_thermometer_o[20]
*78 output_thermometer_o[32]
*79 output_thermometer_o[125]
*80 output_thermometer_o[7]
*81 output_thermometer_o[21]
*82 output_thermometer_o[221]
*83 output_thermometer_o[190]
*84 output_thermometer_o[37]
*85 output_thermometer_o[74]
*86 output_thermometer_o[211]
*87 output_thermometer_o[198]
*88 output_thermometer_o[226]
*89 output_thermometer_o[193]
*90 output_thermometer_o[249]
*91 output_thermometer_o[84]
*92 output_thermometer_o[109]
*93 output_thermometer_o[253]
*94 output_thermometer_o[60]
*95 output_thermometer_o[64]
*96 output_thermometer_o[23]
*97 output_thermometer_o[164]
*98 output_thermometer_o[243]
*99 output_thermometer_o[137]
*100 output_thermometer_o[157]
*101 output_thermometer_o[119]
*102 output_thermometer_o[217]
*103 output_thermometer_o[90]
*104 output_thermometer_o[163]
*105 output_thermometer_o[18]
*106 output_thermometer_o[93]
*107 output_thermometer_o[26]
*108 output_thermometer_o[107]
*109 output_thermometer_o[144]
*110 output_thermometer_o[27]
*111 output_thermometer_o[201]
*112 output_thermometer_o[162]
*113 output_thermometer_o[146]
*114 output_thermometer_o[168]
*115 output_thermometer_o[53]
*116 output_thermometer_o[199]
*117 output_thermometer_o[147]
*118 output_thermometer_o[2]
*119 output_thermometer_o[3]
*120 output_thermometer_o[136]
*121 output_thermometer_o[204]
*122 output_thermometer_o[8]
*123 output_thermometer_o[102]
*124 output_thermometer_o[209]
*125 output_thermometer_o[234]
*126 output_thermometer_o[145]
*127 output_thermometer_o[16]
*128 output_thermometer_o[158]
*129 output_thermometer_o[45]
*130 output_thermometer_o[87]
*131 output_thermometer_o[149]
*132 output_thermometer_o[237]
*133 output_thermometer_o[224]
*134 output_thermometer_o[154]
*135 output_thermometer_o[98]
*136 output_thermometer_o[19]
*137 output_thermometer_o[222]
*138 output_thermometer_o[181]
*139 output_thermometer_o[35]
*140 output_thermometer_o[207]
*141 output_thermometer_o[124]
*142 output_thermometer_o[140]
*143 output_thermometer_o[25]
*144 output_thermometer_o[126]
*145 output_thermometer_o[68]
*146 output_thermometer_o[143]
*147 output_thermometer_o[175]
*148 output_thermometer_o[13]
*149 output_thermometer_o[178]
*150 output_thermometer_o[248]
*151 output_thermometer_o[131]
*152 output_thermometer_o[95]
*153 output_thermometer_o[156]
*154 output_thermometer_o[89]
*155 output_thermometer_o[176]
*156 output_thermometer_o[205]
*157 output_thermometer_o[62]
*158 output_thermometer_o[39]
*159 output_thermometer_o[99]
*160 output_thermometer_o[41]
*161 output_thermometer_o[104]
*162 output_thermometer_o[169]
*163 output_binary_o[0]
*164 output_thermometer_o[186]
*165 output_thermometer_o[180]
*166 output_thermometer_o[214]
*167 output_thermometer_o[63]
*168 output_thermometer_o[206]
*169 output_thermometer_o[128]
*170 output_thermometer_o[228]
*171 output_thermometer_o[55]
*172 output_thermometer_o[220]
*173 output_thermometer_o[111]
*174 output_thermometer_o[247]
*175 output_thermometer_o[183]
*176 output_thermometer_o[219]
*177 output_thermometer_o[58]
*178 output_thermometer_o[114]
*179 output_thermometer_o[252]
*180 output_thermometer_o[167]
*181 output_thermometer_o[49]
*182 output_thermometer_o[159]
*183 output_thermometer_o[120]
*184 output_thermometer_o[78]
*185 output_thermometer_o[152]
*186 output_thermometer_o[189]
*187 output_thermometer_o[103]
*188 output_thermometer_o[106]
*189 output_thermometer_o[233]
*190 output_thermometer_o[155]
*191 output_thermometer_o[34]
*192 output_thermometer_o[138]
*193 output_thermometer_o[48]
*194 output_binary_o[1]
*195 output_thermometer_o[225]
*196 output_thermometer_o[121]
*197 output_thermometer_o[10]
*198 output_thermometer_o[77]
*199 output_thermometer_o[170]
*200 output_thermometer_o[141]
*201 output_thermometer_o[40]
*202 output_thermometer_o[216]
*203 output_thermometer_o[139]
*204 output_thermometer_o[210]
*205 output_thermometer_o[42]
*206 output_thermometer_o[150]
*207 output_thermometer_o[88]
*208 output_thermometer_o[240]
*209 output_thermometer_o[1]
*210 output_thermometer_o[66]
*211 output_thermometer_o[36]
*212 output_thermometer_o[127]
*213 output_thermometer_o[177]
*214 output_thermometer_o[148]
*215 output_thermometer_o[239]
*216 output_thermometer_o[255]
*217 output_thermometer_o[71]
*218 output_thermometer_o[133]
*219 output_thermometer_o[91]
*220 output_thermometer_o[22]
*221 output_thermometer_o[65]
*222 output_thermometer_o[75]
*223 output_thermometer_o[192]
*224 output_thermometer_o[51]
*225 output_thermometer_o[171]
*226 output_thermometer_o[254]
*227 output_thermometer_o[28]
*228 output_thermometer_o[122]
*229 output_thermometer_o[70]
*230 output_thermometer_o[46]
*231 output_thermometer_o[100]
*232 output_thermometer_o[56]
*233 output_thermometer_o[172]
*234 output_thermometer_o[135]
*235 output_thermometer_o[184]
*236 output_thermometer_o[173]
*237 output_thermometer_o[85]
*238 output_thermometer_o[38]
*239 output_thermometer_o[52]
*240 output_thermometer_o[238]
*241 output_thermometer_o[92]
*242 output_thermometer_o[165]
*243 output_thermometer_o[223]
*244 output_thermometer_o[246]
*245 output_thermometer_o[118]
*246 output_thermometer_o[50]
*247 output_thermometer_o[202]
*248 output_thermometer_o[113]
*249 output_thermometer_o[80]
*250 output_thermometer_o[231]
*251 output_thermometer_o[153]
*252 output_thermometer_o[203]
*253 output_thermometer_o[6]
*254 output_thermometer_o[44]
*255 output_thermometer_o[0]
*256 output_thermometer_o[108]
*257 output_thermometer_o[24]
*258 en_o
*259 clk_i
*260 rst_ni
*261 randomise_en_i
*262 en_i
*263 input_binary_i[0]
*264 input_binary_i[1]
*265 input_binary_i[2]
*266 input_binary_i[3]
*267 input_binary_i[4]
*268 input_binary_i[5]
*269 input_binary_i[6]
*270 input_binary_i[7]
*271 input_binary_i[8]
*272 input_binary_i[9]
*273 _0000_
*274 _0001_
*275 _0002_
*276 _0003_
*277 _0004_
*278 _0005_
*279 _0006_
*280 _0007_
*281 _0008_
*282 _0009_
*283 _0010_
*284 _0011_
*285 _0012_
*286 _0013_
*287 _0014_
*288 _0015_
*289 _0016_
*290 _0017_
*291 _0018_
*292 _0019_
*293 _0020_
*294 _0021_
*295 _0022_
*296 _0023_
*297 _0024_
*298 _0025_
*299 _0026_
*300 _0027_
*301 _0028_
*302 _0029_
*303 _0030_
*304 _0031_
*305 _0032_
*306 _0033_
*307 _0034_
*308 _0035_
*309 _0036_
*310 _0037_
*311 _0038_
*312 _0039_
*313 _0040_
*314 _0041_
*315 _0042_
*316 _0043_
*317 _0044_
*318 _0045_
*319 _0046_
*320 _0047_
*321 _0048_
*322 _0049_
*323 _0050_
*324 _0051_
*325 _0052_
*326 _0053_
*327 _0054_
*328 _0055_
*329 _0056_
*330 _0057_
*331 _0058_
*332 _0059_
*333 _0060_
*334 _0061_
*335 _0062_
*336 _0063_
*337 _0064_
*338 _0065_
*339 _0066_
*340 _0067_
*341 _0068_
*342 _0069_
*343 _0070_
*344 _0071_
*345 _0072_
*346 _0073_
*347 _0074_
*348 _0075_
*349 _0076_
*350 _0077_
*351 _0078_
*352 _0079_
*353 _0080_
*354 _0081_
*355 _0082_
*356 _0083_
*357 _0084_
*358 _0085_
*359 _0086_
*360 _0087_
*361 _0088_
*362 _0089_
*363 _0090_
*364 _0091_
*365 _0092_
*366 _0093_
*367 _0094_
*368 _0095_
*369 _0096_
*370 _0097_
*371 _0098_
*372 _0099_
*373 _0100_
*374 _0101_
*375 _0102_
*376 _0103_
*377 _0104_
*378 _0105_
*379 _0106_
*380 _0107_
*381 _0108_
*382 _0109_
*383 _0110_
*384 _0111_
*385 _0112_
*386 _0113_
*387 _0114_
*388 _0115_
*389 _0116_
*390 _0117_
*391 _0118_
*392 _0119_
*393 _0120_
*394 _0121_
*395 _0122_
*396 _0123_
*397 _0124_
*398 _0125_
*399 _0126_
*400 _0127_
*401 _0128_
*402 _0129_
*403 _0130_
*404 _0131_
*405 _0132_
*406 _0133_
*407 _0134_
*408 _0135_
*409 _0136_
*410 _0137_
*411 _0138_
*412 _0139_
*413 _0140_
*414 _0141_
*415 _0142_
*416 _0143_
*417 _0144_
*418 _0145_
*419 _0146_
*420 _0147_
*421 _0148_
*422 _0149_
*423 _0150_
*424 _0151_
*425 _0152_
*426 _0153_
*427 _0154_
*428 _0155_
*429 _0156_
*430 _0157_
*431 _0158_
*432 _0159_
*433 _0160_
*434 _0161_
*435 _0162_
*436 _0163_
*437 _0164_
*438 _0165_
*439 _0166_
*440 _0167_
*441 _0168_
*442 _0169_
*443 _0170_
*444 _0171_
*445 _0172_
*446 _0173_
*447 _0174_
*448 _0175_
*449 _0176_
*450 _0177_
*451 _0178_
*452 _0179_
*453 _0180_
*454 _0181_
*455 _0182_
*456 _0183_
*457 _0184_
*458 _0185_
*459 _0186_
*460 _0187_
*461 _0188_
*462 _0189_
*463 _0190_
*464 _0191_
*465 _0192_
*466 _0193_
*467 _0194_
*468 _0195_
*469 _0196_
*470 _0197_
*471 _0198_
*472 _0199_
*473 _0200_
*474 _0201_
*475 _0202_
*476 _0203_
*477 _0204_
*478 _0205_
*479 _0206_
*480 _0207_
*481 _0208_
*482 _0209_
*483 _0210_
*484 _0211_
*485 _0212_
*486 _0213_
*487 _0214_
*488 _0215_
*489 _0216_
*490 _0217_
*491 _0218_
*492 _0219_
*493 _0220_
*494 _0221_
*495 _0222_
*496 _0223_
*497 _0224_
*498 _0225_
*499 _0226_
*500 _0227_
*501 _0228_
*502 _0229_
*503 _0230_
*504 _0231_
*505 _0232_
*506 _0233_
*507 _0234_
*508 _0235_
*509 _0236_
*510 _0237_
*511 _0238_
*512 _0239_
*513 _0240_
*514 _0241_
*515 _0242_
*516 _0243_
*517 _0244_
*518 _0245_
*519 _0246_
*520 _0247_
*521 _0248_
*522 _0249_
*523 _0250_
*524 _0251_
*525 _0252_
*526 _0253_
*527 _0254_
*528 _0255_
*529 _0256_
*530 _0257_
*531 _0258_
*532 _0259_
*533 _0260_
*534 _0261_
*535 _0262_
*536 _0263_
*537 _0264_
*538 _0265_
*539 _0266_
*540 _0267_
*541 _0268_
*542 _0269_
*543 _0270_
*544 _0271_
*545 _0272_
*546 _0273_
*547 _0274_
*548 _0275_
*549 _0276_
*550 _0277_
*551 _0278_
*552 _0279_
*553 _0280_
*554 _0281_
*555 _0282_
*556 _0283_
*557 _0284_
*558 _0285_
*559 _0286_
*560 _0287_
*561 _0288_
*562 _0289_
*563 _0290_
*564 _0291_
*565 _0292_
*566 _0293_
*567 _0294_
*568 _0295_
*569 _0296_
*570 _0297_
*571 _0298_
*572 _0299_
*573 _0300_
*574 _0301_
*575 _0302_
*576 _0303_
*577 _0304_
*578 _0305_
*579 _0306_
*580 _0307_
*581 _0308_
*582 _0309_
*583 _0310_
*584 _0311_
*585 _0312_
*586 _0313_
*587 _0314_
*588 _0315_
*589 _0316_
*590 _0317_
*591 _0318_
*592 _0319_
*593 _0320_
*594 _0321_
*595 _0322_
*596 _0323_
*597 _0324_
*598 _0325_
*599 _0326_
*600 _0327_
*601 _0328_
*602 _0329_
*603 _0330_
*604 _0331_
*605 _0332_
*606 _0333_
*607 _0334_
*608 _0335_
*609 _0336_
*610 _0337_
*611 _0338_
*612 _0339_
*613 _0340_
*614 _0341_
*615 _0342_
*616 _0343_
*617 _0344_
*618 _0345_
*619 _0346_
*620 _0347_
*621 _0348_
*622 _0349_
*623 _0350_
*624 _0351_
*625 _0352_
*626 _0353_
*627 _0354_
*628 _0355_
*629 _0356_
*630 _0357_
*631 _0358_
*632 _0359_
*633 _0360_
*634 _0361_
*635 _0362_
*636 _0363_
*637 _0364_
*638 _0365_
*639 _0366_
*640 _0367_
*641 _0368_
*642 _0369_
*643 _0370_
*644 _0371_
*645 _0372_
*646 _0373_
*647 _0374_
*648 _0375_
*649 _0376_
*650 _0377_
*651 _0378_
*652 _0379_
*653 _0380_
*654 _0381_
*655 _0382_
*656 _0383_
*657 _0384_
*658 _0385_
*659 _0386_
*660 _0387_
*661 _0388_
*662 _0389_
*663 _0390_
*664 _0391_
*665 _0392_
*666 _0393_
*667 _0394_
*668 _0395_
*669 _0396_
*670 _0397_
*671 _0398_
*672 _0399_
*673 _0400_
*674 _0401_
*675 _0402_
*676 _0403_
*677 _0404_
*678 _0405_
*679 _0406_
*680 _0407_
*681 _0408_
*682 _0409_
*683 _0410_
*684 _0411_
*685 _0412_
*686 _0413_
*687 _0414_
*688 _0415_
*689 _0416_
*690 _0417_
*691 _0418_
*692 _0419_
*693 _0420_
*694 _0421_
*695 _0422_
*696 _0423_
*697 _0424_
*698 _0425_
*699 _0426_
*700 _0427_
*701 _0428_
*702 _0429_
*703 _0430_
*704 _0431_
*705 _0432_
*706 _0433_
*707 _0434_
*708 _0435_
*709 _0436_
*710 _0437_
*711 _0438_
*712 _0439_
*713 _0440_
*714 _0441_
*715 _0442_
*716 _0443_
*717 _0444_
*718 _0445_
*719 _0446_
*720 _0447_
*721 _0448_
*722 _0449_
*723 _0450_
*724 _0451_
*725 _0452_
*726 _0453_
*727 _0454_
*728 _0455_
*729 _0456_
*730 _0457_
*731 _0458_
*732 _0459_
*733 _0460_
*734 _0461_
*735 _0462_
*736 _0463_
*737 _0464_
*738 _0465_
*739 _0466_
*740 _0467_
*741 _0468_
*742 _0469_
*743 _0470_
*744 _0471_
*745 _0472_
*746 _0473_
*747 _0474_
*748 _0475_
*749 _0476_
*750 _0477_
*751 _0478_
*752 _0479_
*753 _0480_
*754 _0481_
*755 _0482_
*756 _0483_
*757 _0484_
*758 _0485_
*759 _0486_
*760 _0487_
*761 _0488_
*762 _0489_
*763 _0490_
*764 _0491_
*765 _0492_
*766 _0493_
*767 _0494_
*768 _0495_
*769 _0496_
*770 _0497_
*771 _0498_
*772 _0499_
*773 _0500_
*774 _0501_
*775 _0502_
*776 _0503_
*777 _0504_
*778 _0505_
*779 _0506_
*780 _0507_
*781 _0508_
*782 _0509_
*783 _0510_
*784 _0511_
*785 _0512_
*786 _0513_
*787 _0514_
*788 _0515_
*789 _0516_
*790 _0517_
*791 _0518_
*792 _0519_
*793 _0520_
*794 _0521_
*795 _0522_
*796 _0523_
*797 _0524_
*798 _0525_
*799 _0526_
*800 _0527_
*801 _0528_
*802 _0529_
*803 _0530_
*804 _0531_
*805 _0532_
*806 _0533_
*807 _0534_
*808 _0535_
*809 _0536_
*810 _0537_
*811 _0538_
*812 _0539_
*813 _0540_
*814 _0541_
*815 _0542_
*816 _0543_
*817 _0544_
*818 _0545_
*819 _0546_
*820 _0547_
*821 _0548_
*822 _0549_
*823 _0550_
*824 _0551_
*825 _0552_
*826 _0553_
*827 _0554_
*828 _0555_
*829 _0556_
*830 _0557_
*831 _0558_
*832 _0559_
*833 _0560_
*834 _0561_
*835 _0562_
*836 _0563_
*837 _0564_
*838 _0565_
*839 _0566_
*840 _0567_
*841 _0568_
*842 _0569_
*843 _0570_
*844 _0571_
*845 _0572_
*846 _0573_
*847 _0574_
*848 _0575_
*849 _0576_
*850 _0577_
*851 _0578_
*852 _0579_
*853 _0580_
*854 _0581_
*855 _0582_
*856 _0583_
*857 _0584_
*858 _0585_
*859 _0586_
*860 _0587_
*861 _0588_
*862 _0589_
*863 _0590_
*864 _0591_
*865 _0592_
*866 _0593_
*867 _0594_
*868 _0595_
*869 _0596_
*870 _0597_
*871 _0598_
*872 _0599_
*873 _0600_
*874 _0601_
*875 _0602_
*876 _0603_
*877 _0604_
*878 _0605_
*879 _0606_
*880 _0607_
*881 _0608_
*882 _0609_
*883 _0610_
*884 _0611_
*885 _0612_
*886 _0613_
*887 _0614_
*888 _0615_
*889 _0616_
*890 _0617_
*891 _0618_
*892 _0619_
*893 _0620_
*894 _0621_
*895 _0622_
*896 _0623_
*897 _0624_
*898 _0625_
*899 _0626_
*900 _0627_
*901 _0628_
*902 _0629_
*903 _0630_
*904 _0631_
*905 _0632_
*906 _0633_
*907 _0634_
*908 _0635_
*909 _0636_
*910 _0637_
*911 _0638_
*912 _0639_
*913 _0640_
*914 _0641_
*915 _0642_
*916 _0643_
*917 _0644_
*918 _0645_
*919 _0646_
*920 _0647_
*921 _0648_
*922 _0649_
*923 _0650_
*924 _0651_
*925 _0652_
*926 _0653_
*927 _0654_
*928 _0655_
*929 _0656_
*930 _0657_
*931 _0658_
*932 _0659_
*933 _0660_
*934 _0661_
*935 _0662_
*936 _0663_
*937 _0664_
*938 _0665_
*939 _0666_
*940 _0667_
*941 _0668_
*942 _0669_
*943 _0670_
*944 _0671_
*945 _0672_
*946 _0673_
*947 _0674_
*948 _0675_
*949 _0676_
*950 _0677_
*951 _0678_
*952 _0679_
*953 _0680_
*954 _0681_
*955 _0682_
*956 _0683_
*957 _0684_
*958 _0685_
*959 _0686_
*960 _0687_
*961 _0688_
*962 _0689_
*963 _0690_
*964 _0691_
*965 _0692_
*966 _0693_
*967 _0694_
*968 _0695_
*969 _0696_
*970 _0697_
*971 _0698_
*972 _0699_
*973 _0700_
*974 _0701_
*975 _0702_
*976 _0703_
*977 _0704_
*978 _0705_
*979 _0706_
*980 _0707_
*981 _0708_
*982 _0709_
*983 _0710_
*984 _0711_
*985 _0712_
*986 _0713_
*987 _0714_
*988 _0715_
*989 _0716_
*990 _0717_
*991 _0718_
*992 _0719_
*993 _0720_
*994 _0721_
*995 _0722_
*996 _0723_
*997 _0724_
*998 _0725_
*999 _0726_
*1000 _0727_
*1001 _0728_
*1002 _0729_
*1003 _0730_
*1004 _0731_
*1005 _0732_
*1006 _0733_
*1007 _0734_
*1008 _0735_
*1009 _0736_
*1010 _0737_
*1011 _0738_
*1012 _0739_
*1013 _0740_
*1014 _0741_
*1015 _0742_
*1016 _0743_
*1017 _0744_
*1018 _0745_
*1019 _0746_
*1020 _0747_
*1021 _0748_
*1022 _0749_
*1023 _0750_
*1024 _0751_
*1025 _0752_
*1026 _0753_
*1027 _0754_
*1028 _0755_
*1029 _0756_
*1030 _0757_
*1031 _0758_
*1032 _0759_
*1033 _0760_
*1034 _0761_
*1035 _0762_
*1036 _0763_
*1037 _0764_
*1038 _0765_
*1039 _0766_
*1040 _0767_
*1041 _0768_
*1042 _0769_
*1043 _0770_
*1044 _0771_
*1045 _0772_
*1046 _0773_
*1047 _0774_
*1048 _0775_
*1049 _0776_
*1050 _0777_
*1051 _0778_
*1052 _0779_
*1053 _0780_
*1054 _0781_
*1055 _0782_
*1056 _0783_
*1057 _0784_
*1058 _0785_
*1059 _0786_
*1060 _0787_
*1061 _0788_
*1062 _0789_
*1063 _0790_
*1064 _0791_
*1065 _0792_
*1066 _0793_
*1067 _0794_
*1068 _0795_
*1069 _0796_
*1070 _0797_
*1071 _0798_
*1072 _0799_
*1073 _0800_
*1074 _0801_
*1075 _0802_
*1076 _0803_
*1077 _0804_
*1078 _0805_
*1079 _0806_
*1080 _0807_
*1081 _0808_
*1082 _0809_
*1083 _0810_
*1084 _0811_
*1085 _0812_
*1086 _0813_
*1087 _0814_
*1088 _0815_
*1089 _0816_
*1090 _0817_
*1091 _0818_
*1092 _0819_
*1093 _0820_
*1094 _0821_
*1095 _0822_
*1096 _0823_
*1097 _0824_
*1098 _0825_
*1099 _0826_
*1100 _0827_
*1101 _0828_
*1102 _0829_
*1103 _0830_
*1104 _0831_
*1105 _0832_
*1106 _0833_
*1107 _0834_
*1108 _0835_
*1109 _0836_
*1110 _0837_
*1111 _0838_
*1112 _0839_
*1113 _0840_
*1114 _0841_
*1115 _0842_
*1116 _0843_
*1117 _0844_
*1118 _0845_
*1119 _0846_
*1120 _0847_
*1121 _0848_
*1122 _0849_
*1123 _0850_
*1124 _0851_
*1125 _0852_
*1126 _0853_
*1127 _0854_
*1128 _0855_
*1129 _0856_
*1130 _0857_
*1131 _0858_
*1132 _0859_
*1133 _0860_
*1134 _0861_
*1135 _0862_
*1136 _0863_
*1137 _0864_
*1138 _0865_
*1139 _0866_
*1140 _0867_
*1141 _0868_
*1142 _0869_
*1143 _0870_
*1144 _0871_
*1145 _0872_
*1146 _0873_
*1147 _0874_
*1148 _0875_
*1149 _0876_
*1150 _0877_
*1151 _0878_
*1152 _0879_
*1153 _0880_
*1154 _0881_
*1155 _0882_
*1156 _0883_
*1157 _0884_
*1158 _0885_
*1159 _0886_
*1160 _0887_
*1161 _0888_
*1162 _0889_
*1163 _0890_
*1164 _0891_
*1165 _0892_
*1166 _0893_
*1167 _0894_
*1168 _0895_
*1169 _0896_
*1170 _0897_
*1171 _0898_
*1172 _0899_
*1173 _0900_
*1174 _0901_
*1175 _0902_
*1176 _0903_
*1177 _0904_
*1178 _0905_
*1179 _0906_
*1180 _0907_
*1181 _0908_
*1182 _0909_
*1183 _0910_
*1184 _0911_
*1185 _0912_
*1186 _0913_
*1187 _0914_
*1188 _0915_
*1189 _0916_
*1190 _0917_
*1191 _0918_
*1192 _0919_
*1193 _0920_
*1194 _0921_
*1195 _0922_
*1196 _0923_
*1197 _0924_
*1198 _0925_
*1199 _0926_
*1200 _0927_
*1201 _0928_
*1202 _0929_
*1203 _0930_
*1204 _0931_
*1205 _0932_
*1206 _0933_
*1207 _0934_
*1208 _0935_
*1209 _0936_
*1210 _0937_
*1211 _0938_
*1212 _0939_
*1213 _0940_
*1214 _0941_
*1215 _0942_
*1216 _0943_
*1217 _0944_
*1218 _0945_
*1219 _0946_
*1220 _0947_
*1221 _0948_
*1222 _0949_
*1223 _0950_
*1224 _0951_
*1225 _0952_
*1226 _0953_
*1227 _0954_
*1228 _0955_
*1229 _0956_
*1230 _0957_
*1231 _0958_
*1232 _0959_
*1233 _0960_
*1234 _0961_
*1235 _0962_
*1236 _0963_
*1237 _0964_
*1238 _0965_
*1239 _0966_
*1240 _0967_
*1241 _0968_
*1242 _0969_
*1243 _0970_
*1244 _0971_
*1245 _0972_
*1246 _0973_
*1247 _0974_
*1248 _0975_
*1249 _0976_
*1250 _0977_
*1251 _0978_
*1252 _0979_
*1253 _0980_
*1254 _0981_
*1255 _0982_
*1256 _0983_
*1257 _0984_
*1258 _0985_
*1259 _0986_
*1260 _0987_
*1261 _0988_
*1262 _0989_
*1263 _0990_
*1264 _0991_
*1265 _0992_
*1266 _0993_
*1267 _0994_
*1268 _0995_
*1269 _0996_
*1270 _0997_
*1271 _0998_
*1272 _0999_
*1273 _1000_
*1274 _1001_
*1275 _1002_
*1276 _1003_
*1277 _1004_
*1278 _1005_
*1279 _1006_
*1280 _1007_
*1281 _1008_
*1282 _1009_
*1283 _1010_
*1284 _1011_
*1285 _1012_
*1286 _1013_
*1287 _1014_
*1288 _1015_
*1289 _1016_
*1290 _1017_
*1291 _1018_
*1292 _1019_
*1293 _1020_
*1294 _1021_
*1295 _1022_
*1296 _1023_
*1297 _1024_
*1298 _1025_
*1299 _1026_
*1300 _1027_
*1301 _1028_
*1302 _1029_
*1303 _1030_
*1304 _1031_
*1305 _1032_
*1306 _1033_
*1307 _1034_
*1308 _1035_
*1309 _1036_
*1310 _1037_
*1311 _1038_
*1312 _1039_
*1313 _1040_
*1314 _1041_
*1315 _1042_
*1316 _1043_
*1317 _1044_
*1318 _1045_
*1319 _1046_
*1320 _1047_
*1321 _1048_
*1322 _1049_
*1323 _1050_
*1324 _1051_
*1325 _1052_
*1326 _1053_
*1327 _1054_
*1328 _1055_
*1329 _1056_
*1330 _1057_
*1331 _1058_
*1332 _1059_
*1333 _1060_
*1334 _1061_
*1335 _1062_
*1336 _1063_
*1337 _1064_
*1338 _1065_
*1339 _1066_
*1340 _1067_
*1341 _1068_
*1342 _1069_
*1343 _1070_
*1344 _1071_
*1345 _1072_
*1346 _1073_
*1347 _1074_
*1348 _1075_
*1349 _1076_
*1350 _1077_
*1351 _1078_
*1352 _1079_
*1353 _1080_
*1354 _1081_
*1355 _1082_
*1356 _1083_
*1357 _1084_
*1358 _1085_
*1359 _1086_
*1360 _1087_
*1361 _1088_
*1362 _1089_
*1363 _1090_
*1364 _1091_
*1365 _1092_
*1366 _1093_
*1367 _1094_
*1368 _1095_
*1369 _1096_
*1370 _1097_
*1371 _1098_
*1372 _1099_
*1373 _1100_
*1374 _1101_
*1375 _1102_
*1376 _1103_
*1377 _1104_
*1378 _1105_
*1379 _1106_
*1380 _1107_
*1381 _1108_
*1382 _1109_
*1383 _1110_
*1384 _1111_
*1385 _1112_
*1386 _1113_
*1387 _1114_
*1388 _1115_
*1389 _1116_
*1390 _1117_
*1391 _1118_
*1392 _1119_
*1393 _1120_
*1394 _1121_
*1395 _1122_
*1396 _1123_
*1397 _1124_
*1398 _1125_
*1399 _1126_
*1400 _1127_
*1401 _1128_
*1402 _1129_
*1403 _1130_
*1404 _1131_
*1405 _1132_
*1406 _1133_
*1407 _1134_
*1408 _1135_
*1409 _1136_
*1410 _1137_
*1411 _1138_
*1412 _1139_
*1413 _1140_
*1414 _1141_
*1415 _1142_
*1416 _1143_
*1417 _1144_
*1418 _1145_
*1419 _1146_
*1420 _1147_
*1421 _1148_
*1422 _1149_
*1423 _1150_
*1424 _1151_
*1425 _1152_
*1426 _1153_
*1427 _1154_
*1428 _1155_
*1429 _1156_
*1430 _1157_
*1431 _1158_
*1432 _1159_
*1433 _1160_
*1434 _1161_
*1435 _1162_
*1436 _1163_
*1437 _1164_
*1438 _1165_
*1439 _1166_
*1440 _1167_
*1441 _1168_
*1442 _1169_
*1443 _1170_
*1444 _1171_
*1445 _1172_
*1446 _1173_
*1447 _1174_
*1448 _1175_
*1449 _1176_
*1450 _1177_
*1451 _1178_
*1452 _1179_
*1453 _1180_
*1454 _1181_
*1455 _1182_
*1456 _1183_
*1457 _1184_
*1458 _1185_
*1459 _1186_
*1460 _1187_
*1461 _1188_
*1462 _1189_
*1463 _1190_
*1464 _1191_
*1465 _1192_
*1466 _1193_
*1467 _1194_
*1468 _1195_
*1469 _1196_
*1470 _1197_
*1471 _1198_
*1472 _1199_
*1473 _1200_
*1474 _1201_
*1475 _1202_
*1476 _1203_
*1477 _1204_
*1478 _1205_
*1479 _1206_
*1480 _1207_
*1481 _1208_
*1482 _1209_
*1483 _1210_
*1484 _1211_
*1485 _1212_
*1486 _1213_
*1487 _1214_
*1488 _1215_
*1489 _1216_
*1490 _1217_
*1491 _1218_
*1492 _1219_
*1493 _1220_
*1494 _1221_
*1495 _1222_
*1496 _1223_
*1497 _1224_
*1498 _1225_
*1499 _1226_
*1500 _1227_
*1501 _1228_
*1502 _1229_
*1503 _1230_
*1504 _1231_
*1505 _1232_
*1506 _1233_
*1507 _1234_
*1508 _1235_
*1509 _1236_
*1510 _1237_
*1511 _1238_
*1512 _1239_
*1513 _1240_
*1514 _1241_
*1515 _1242_
*1516 _1243_
*1517 _1244_
*1518 _1245_
*1519 _1246_
*1520 _1247_
*1521 _1248_
*1522 _1249_
*1523 _1250_
*1524 _1251_
*1525 _1252_
*1526 _1253_
*1527 _1254_
*1528 _1255_
*1529 _1256_
*1530 _1257_
*1531 _1258_
*1532 _1259_
*1533 _1260_
*1534 _1261_
*1535 _1262_
*1536 _1263_
*1537 _1264_
*1538 _1265_
*1539 _1266_
*1540 _1267_
*1541 _1268_
*1542 _1269_
*1543 _1270_
*1544 _1271_
*1545 _1272_
*1546 _1273_
*1547 _1274_
*1548 _1275_
*1549 _1276_
*1550 _1277_
*1551 _1278_
*1552 _1279_
*1553 _1280_
*1554 _1281_
*1555 _1282_
*1556 _1283_
*1557 _1284_
*1558 _1285_
*1559 _1286_
*1560 _1287_
*1561 _1288_
*1562 _1289_
*1563 _1290_
*1564 _1291_
*1565 _1292_
*1566 _1293_
*1567 _1294_
*1568 _1295_
*1569 _1296_
*1570 _1297_
*1571 _1298_
*1572 _1299_
*1573 _1300_
*1574 _1301_
*1575 _1302_
*1576 _1303_
*1577 _1304_
*1578 _1305_
*1579 _1306_
*1580 _1307_
*1581 _1308_
*1582 _1309_
*1583 _1310_
*1584 _1311_
*1585 _1312_
*1586 _1313_
*1587 _1314_
*1588 _1315_
*1589 _1316_
*1590 _1317_
*1591 _1318_
*1592 _1319_
*1593 _1320_
*1594 _1321_
*1595 _1322_
*1596 _1323_
*1597 _1324_
*1598 _1325_
*1599 _1326_
*1600 _1327_
*1601 _1328_
*1602 _1329_
*1603 _1330_
*1604 _1331_
*1605 _1332_
*1606 _1333_
*1607 _1334_
*1608 _1335_
*1609 _1336_
*1610 _1337_
*1611 _1338_
*1612 _1339_
*1613 _1340_
*1614 _1341_
*1615 _1342_
*1616 _1343_
*1617 _1344_
*1618 _1345_
*1619 _1346_
*1620 _1347_
*1621 _1348_
*1622 _1349_
*1623 _1350_
*1624 _1351_
*1625 _1352_
*1626 _1353_
*1627 _1354_
*1628 _1355_
*1629 _1356_
*1630 _1357_
*1631 _1358_
*1632 _1359_
*1633 _1360_
*1634 _1361_
*1635 _1362_
*1636 _1363_
*1637 _1364_
*1638 _1365_
*1639 _1366_
*1640 _1367_
*1641 _1368_
*1642 _1369_
*1643 _1370_
*1644 _1371_
*1645 _1372_
*1646 _1373_
*1647 _1374_
*1648 _1375_
*1649 _1376_
*1650 _1377_
*1651 _1378_
*1652 _1379_
*1653 _1380_
*1654 _1381_
*1655 _1382_
*1656 _1383_
*1657 _1384_
*1658 _1385_
*1659 _1386_
*1660 _1387_
*1661 _1388_
*1662 _1389_
*1663 _1390_
*1664 _1391_
*1665 _1392_
*1666 _1393_
*1667 _1394_
*1668 _1395_
*1669 _1396_
*1670 _1397_
*1671 _1398_
*1672 _1399_
*1673 _1400_
*1674 _1401_
*1675 _1402_
*1676 _1403_
*1677 _1404_
*1678 _1405_
*1679 _1406_
*1680 _1407_
*1681 _1408_
*1682 _1409_
*1683 _1410_
*1684 _1411_
*1685 _1412_
*1686 _1413_
*1687 _1414_
*1688 _1415_
*1689 _1416_
*1690 _1417_
*1691 _1418_
*1692 _1419_
*1693 _1420_
*1694 _1421_
*1695 _1422_
*1696 _1423_
*1697 _1424_
*1698 _1425_
*1699 _1426_
*1700 _1427_
*1701 _1428_
*1702 _1429_
*1703 _1430_
*1704 _1431_
*1705 _1432_
*1706 _1433_
*1707 _1434_
*1708 _1435_
*1709 _1436_
*1710 _1437_
*1711 _1438_
*1712 _1439_
*1713 _1440_
*1714 _1441_
*1715 _1442_
*1716 _1443_
*1717 _1444_
*1718 _1445_
*1719 _1446_
*1720 _1447_
*1721 _1448_
*1722 _1449_
*1723 _1450_
*1724 _1451_
*1725 _1452_
*1726 _1453_
*1727 _1454_
*1728 _1455_
*1729 _1456_
*1730 _1457_
*1731 _1458_
*1732 _1459_
*1733 _1460_
*1734 _1461_
*1735 _1462_
*1736 _1463_
*1737 _1464_
*1738 _1465_
*1739 _1466_
*1740 _1467_
*1741 _1468_
*1742 _1469_
*1743 _1470_
*1744 _1471_
*1745 _1472_
*1746 _1473_
*1747 _1474_
*1748 _1475_
*1749 _1476_
*1750 _1477_
*1751 _1478_
*1752 _1479_
*1753 _1480_
*1754 _1481_
*1755 _1482_
*1756 _1483_
*1757 _1484_
*1758 _1485_
*1759 _1486_
*1760 _1487_
*1761 _1488_
*1762 _1489_
*1763 _1490_
*1764 _1491_
*1765 _1492_
*1766 _1493_
*1767 _1494_
*1768 _1495_
*1769 _1496_
*1770 _1497_
*1771 _1498_
*1772 _1499_
*1773 _1500_
*1774 _1501_
*1775 _1502_
*1776 _1503_
*1777 _1504_
*1778 _1505_
*1779 _1506_
*1780 _1507_
*1781 _1508_
*1782 _1509_
*1783 _1510_
*1784 _1511_
*1785 _1512_
*1786 _1513_
*1787 _1514_
*1788 _1515_
*1789 _1516_
*1790 _1517_
*1791 _1518_
*1792 _1519_
*1793 _1520_
*1794 _1521_
*1795 _1522_
*1796 _1523_
*1797 _1524_
*1798 _1525_
*1799 _1526_
*1800 _1527_
*1801 _1528_
*1802 _1529_
*1803 _1530_
*1804 _1531_
*1805 _1532_
*1806 _1533_
*1807 _1534_
*1808 _1535_
*1809 _1536_
*1810 _1537_
*1811 _1538_
*1812 _1539_
*1813 _1540_
*1814 _1541_
*1815 _1542_
*1816 _1543_
*1817 _1544_
*1818 _1545_
*1819 _1546_
*1820 _1547_
*1821 _1548_
*1822 _1549_
*1823 _1550_
*1824 _1551_
*1825 _1552_
*1826 _1553_
*1827 _1554_
*1828 _1555_
*1829 _1556_
*1830 _1557_
*1831 _1558_
*1832 _1559_
*1833 _1560_
*1834 _1561_
*1835 _1562_
*1836 _1563_
*1837 _1564_
*1838 _1565_
*1839 _1566_
*1840 _1567_
*1841 _1568_
*1842 _1569_
*1843 _1570_
*1844 _1571_
*1845 _1572_
*1846 _1573_
*1847 _1574_
*1848 _1575_
*1849 _1576_
*1850 _1577_
*1851 _1578_
*1852 _1579_
*1853 _1580_
*1854 _1581_
*1855 _1582_
*1856 _1583_
*1857 _1584_
*1858 _1585_
*1859 _1586_
*1860 _1587_
*1861 _1588_
*1862 _1589_
*1863 _1590_
*1864 _1591_
*1865 _1592_
*1866 _1593_
*1867 _1594_
*1868 _1595_
*1869 _1596_
*1870 _1597_
*1871 _1598_
*1872 _1599_
*1873 _1600_
*1874 _1601_
*1875 _1602_
*1876 _1603_
*1877 _1604_
*1878 _1605_
*1879 _1606_
*1880 _1607_
*1881 _1608_
*1882 _1609_
*1883 _1610_
*1884 _1611_
*1885 _1612_
*1886 _1613_
*1887 _1614_
*1888 input_binary_slice_q\[0\]
*1889 input_binary_slice_q\[1\]
*1890 lfsr_q\[0\]
*1891 lfsr_q\[10\]
*1892 lfsr_q\[11\]
*1893 lfsr_q\[12\]
*1894 lfsr_q\[13\]
*1895 lfsr_q\[14\]
*1896 lfsr_q\[1\]
*1897 lfsr_q\[2\]
*1898 lfsr_q\[3\]
*1899 lfsr_q\[4\]
*1900 lfsr_q\[5\]
*1901 lfsr_q\[6\]
*1902 lfsr_q\[7\]
*1903 lfsr_q\[8\]
*1904 lfsr_q\[9\]
*1905 remap_control\[0\]
*1906 remap_control\[1\]
*1907 reversed_thermometer\[0\]
*1908 reversed_thermometer\[100\]
*1909 reversed_thermometer\[101\]
*1910 reversed_thermometer\[102\]
*1911 reversed_thermometer\[103\]
*1912 reversed_thermometer\[104\]
*1913 reversed_thermometer\[105\]
*1914 reversed_thermometer\[106\]
*1915 reversed_thermometer\[107\]
*1916 reversed_thermometer\[108\]
*1917 reversed_thermometer\[109\]
*1918 reversed_thermometer\[10\]
*1919 reversed_thermometer\[110\]
*1920 reversed_thermometer\[111\]
*1921 reversed_thermometer\[112\]
*1922 reversed_thermometer\[113\]
*1923 reversed_thermometer\[114\]
*1924 reversed_thermometer\[115\]
*1925 reversed_thermometer\[116\]
*1926 reversed_thermometer\[117\]
*1927 reversed_thermometer\[118\]
*1928 reversed_thermometer\[119\]
*1929 reversed_thermometer\[11\]
*1930 reversed_thermometer\[120\]
*1931 reversed_thermometer\[121\]
*1932 reversed_thermometer\[122\]
*1933 reversed_thermometer\[123\]
*1934 reversed_thermometer\[124\]