* NGSPICE file created from dac_digital_interface.ext - technology: sky130A

* Black-box entry subcircuit for sky130_fd_sc_hd__mux2_4 abstract view
.subckt sky130_fd_sc_hd__mux2_4 A0 A1 S VGND VNB VPB VPWR X
.ends

* Black-box entry subcircuit for sky130_fd_sc_hd__fill_1 abstract view
.subckt sky130_fd_sc_hd__fill_1 VGND VNB VPB VPWR
.ends

* Black-box entry subcircuit for sky130_fd_sc_hd__o221ai_2 abstract view
.subckt sky130_fd_sc_hd__o221ai_2 A1 A2 B1 B2 C1 VGND VNB VPB VPWR Y
.ends

* Black-box entry subcircuit for sky130_fd_sc_hd__decap_8 abstract view
.subckt sky130_fd_sc_hd__decap_8 VGND VNB VPB VPWR
.ends

* Black-box entry subcircuit for sky130_fd_sc_hd__clkbuf_2 abstract view
.subckt sky130_fd_sc_hd__clkbuf_2 A VGND VNB VPB VPWR X
.ends

* Black-box entry subcircuit for sky130_fd_sc_hd__o41a_2 abstract view
.subckt sky130_fd_sc_hd__o41a_2 A1 A2 A3 A4 B1 VGND VNB VPB VPWR X
.ends

* Black-box entry subcircuit for sky130_fd_sc_hd__decap_4 abstract view
.subckt sky130_fd_sc_hd__decap_4 VGND VNB VPB VPWR
.ends

* Black-box entry subcircuit for sky130_fd_sc_hd__buf_2 abstract view
.subckt sky130_fd_sc_hd__buf_2 A VGND VNB VPB VPWR X
.ends

* Black-box entry subcircuit for sky130_fd_sc_hd__fill_2 abstract view
.subckt sky130_fd_sc_hd__fill_2 VGND VNB VPB VPWR
.ends

* Black-box entry subcircuit for sky130_fd_sc_hd__decap_12 abstract view
.subckt sky130_fd_sc_hd__decap_12 VGND VNB VPB VPWR
.ends

* Black-box entry subcircuit for sky130_fd_sc_hd__decap_6 abstract view
.subckt sky130_fd_sc_hd__decap_6 VGND VNB VPB VPWR
.ends

* Black-box entry subcircuit for sky130_fd_sc_hd__or2_1 abstract view
.subckt sky130_fd_sc_hd__or2_1 A B VGND VNB VPB VPWR X
.ends

* Black-box entry subcircuit for sky130_fd_sc_hd__o221ai_1 abstract view
.subckt sky130_fd_sc_hd__o221ai_1 A1 A2 B1 B2 C1 VGND VNB VPB VPWR Y
.ends

* Black-box entry subcircuit for sky130_fd_sc_hd__nor2_2 abstract view
.subckt sky130_fd_sc_hd__nor2_2 A B VGND VNB VPB VPWR Y
.ends

* Black-box entry subcircuit for sky130_fd_sc_hd__mux2_2 abstract view
.subckt sky130_fd_sc_hd__mux2_2 A0 A1 S VGND VNB VPB VPWR X
.ends

* Black-box entry subcircuit for sky130_fd_sc_hd__mux2_1 abstract view
.subckt sky130_fd_sc_hd__mux2_1 A0 A1 S VGND VNB VPB VPWR X
.ends

* Black-box entry subcircuit for sky130_fd_sc_hd__nor2_4 abstract view
.subckt sky130_fd_sc_hd__nor2_4 A B VGND VNB VPB VPWR Y
.ends

* Black-box entry subcircuit for sky130_fd_sc_hd__nor2_1 abstract view
.subckt sky130_fd_sc_hd__nor2_1 A B VGND VNB VPB VPWR Y
.ends

* Black-box entry subcircuit for sky130_fd_sc_hd__o22a_1 abstract view
.subckt sky130_fd_sc_hd__o22a_1 A1 A2 B1 B2 VGND VNB VPB VPWR X
.ends

* Black-box entry subcircuit for sky130_fd_sc_hd__clkbuf_4 abstract view
.subckt sky130_fd_sc_hd__clkbuf_4 A VGND VNB VPB VPWR X
.ends

* Black-box entry subcircuit for sky130_fd_sc_hd__o21a_1 abstract view
.subckt sky130_fd_sc_hd__o21a_1 A1 A2 B1 VGND VNB VPB VPWR X
.ends

* Black-box entry subcircuit for sky130_fd_sc_hd__tapvpwrvgnd_1 abstract view
.subckt sky130_fd_sc_hd__tapvpwrvgnd_1 VGND VPWR
.ends

* Black-box entry subcircuit for sky130_fd_sc_hd__decap_3 abstract view
.subckt sky130_fd_sc_hd__decap_3 VGND VNB VPB VPWR
.ends

* Black-box entry subcircuit for sky130_fd_sc_hd__o21ai_2 abstract view
.subckt sky130_fd_sc_hd__o21ai_2 A1 A2 B1 VGND VNB VPB VPWR Y
.ends

* Black-box entry subcircuit for sky130_fd_sc_hd__inv_2 abstract view
.subckt sky130_fd_sc_hd__inv_2 A VGND VNB VPB VPWR Y
.ends

* Black-box entry subcircuit for sky130_fd_sc_hd__dfxtp_1 abstract view
.subckt sky130_fd_sc_hd__dfxtp_1 CLK D VGND VNB VPB VPWR Q
.ends

* Black-box entry subcircuit for sky130_fd_sc_hd__o21ai_1 abstract view
.subckt sky130_fd_sc_hd__o21ai_1 A1 A2 B1 VGND VNB VPB VPWR Y
.ends

* Black-box entry subcircuit for sky130_fd_sc_hd__nand2_1 abstract view
.subckt sky130_fd_sc_hd__nand2_1 A B VGND VNB VPB VPWR Y
.ends

* Black-box entry subcircuit for sky130_fd_sc_hd__diode_2 abstract view
.subckt sky130_fd_sc_hd__diode_2 DIODE VGND VNB VPB VPWR
.ends

* Black-box entry subcircuit for sky130_fd_sc_hd__or2_2 abstract view
.subckt sky130_fd_sc_hd__or2_2 A B VGND VNB VPB VPWR X
.ends

* Black-box entry subcircuit for sky130_fd_sc_hd__a21oi_2 abstract view
.subckt sky130_fd_sc_hd__a21oi_2 A1 A2 B1 VGND VNB VPB VPWR Y
.ends

* Black-box entry subcircuit for sky130_fd_sc_hd__or3_1 abstract view
.subckt sky130_fd_sc_hd__or3_1 A B C VGND VNB VPB VPWR X
.ends

* Black-box entry subcircuit for sky130_fd_sc_hd__o211ai_1 abstract view
.subckt sky130_fd_sc_hd__o211ai_1 A1 A2 B1 C1 VGND VNB VPB VPWR Y
.ends

* Black-box entry subcircuit for sky130_fd_sc_hd__dfxtp_2 abstract view
.subckt sky130_fd_sc_hd__dfxtp_2 CLK D VGND VNB VPB VPWR Q
.ends

* Black-box entry subcircuit for sky130_fd_sc_hd__or3_2 abstract view
.subckt sky130_fd_sc_hd__or3_2 A B C VGND VNB VPB VPWR X
.ends

* Black-box entry subcircuit for sky130_fd_sc_hd__buf_4 abstract view
.subckt sky130_fd_sc_hd__buf_4 A VGND VNB VPB VPWR X
.ends

* Black-box entry subcircuit for sky130_fd_sc_hd__buf_1 abstract view
.subckt sky130_fd_sc_hd__buf_1 A VGND VNB VPB VPWR X
.ends

* Black-box entry subcircuit for sky130_fd_sc_hd__or2_4 abstract view
.subckt sky130_fd_sc_hd__or2_4 A B VGND VNB VPB VPWR X
.ends

* Black-box entry subcircuit for sky130_fd_sc_hd__clkbuf_1 abstract view
.subckt sky130_fd_sc_hd__clkbuf_1 A VGND VNB VPB VPWR X
.ends

* Black-box entry subcircuit for sky130_fd_sc_hd__a21oi_4 abstract view
.subckt sky130_fd_sc_hd__a21oi_4 A1 A2 B1 VGND VNB VPB VPWR Y
.ends

* Black-box entry subcircuit for sky130_fd_sc_hd__or3_4 abstract view
.subckt sky130_fd_sc_hd__or3_4 A B C VGND VNB VPB VPWR X
.ends

* Black-box entry subcircuit for sky130_fd_sc_hd__o21ai_4 abstract view
.subckt sky130_fd_sc_hd__o21ai_4 A1 A2 B1 VGND VNB VPB VPWR Y
.ends

* Black-box entry subcircuit for sky130_fd_sc_hd__o31a_1 abstract view
.subckt sky130_fd_sc_hd__o31a_1 A1 A2 A3 B1 VGND VNB VPB VPWR X
.ends

* Black-box entry subcircuit for sky130_fd_sc_hd__and2_1 abstract view
.subckt sky130_fd_sc_hd__and2_1 A B VGND VNB VPB VPWR X
.ends

* Black-box entry subcircuit for sky130_fd_sc_hd__and3_1 abstract view
.subckt sky130_fd_sc_hd__and3_1 A B C VGND VNB VPB VPWR X
.ends

* Black-box entry subcircuit for sky130_fd_sc_hd__a31o_1 abstract view
.subckt sky130_fd_sc_hd__a31o_1 A1 A2 A3 B1 VGND VNB VPB VPWR X
.ends

* Black-box entry subcircuit for sky130_fd_sc_hd__o211ai_2 abstract view
.subckt sky130_fd_sc_hd__o211ai_2 A1 A2 B1 C1 VGND VNB VPB VPWR Y
.ends

* Black-box entry subcircuit for sky130_fd_sc_hd__o211a_1 abstract view
.subckt sky130_fd_sc_hd__o211a_1 A1 A2 B1 C1 VGND VNB VPB VPWR X
.ends

* Black-box entry subcircuit for sky130_fd_sc_hd__nand2_2 abstract view
.subckt sky130_fd_sc_hd__nand2_2 A B VGND VNB VPB VPWR Y
.ends

* Black-box entry subcircuit for sky130_fd_sc_hd__dlymetal6s2s_1 abstract view
.subckt sky130_fd_sc_hd__dlymetal6s2s_1 A VGND VNB VPB VPWR X
.ends

* Black-box entry subcircuit for sky130_fd_sc_hd__clkbuf_16 abstract view
.subckt sky130_fd_sc_hd__clkbuf_16 A VGND VNB VPB VPWR X
.ends

* Black-box entry subcircuit for sky130_fd_sc_hd__buf_6 abstract view
.subckt sky130_fd_sc_hd__buf_6 A VGND VNB VPB VPWR X
.ends

* Black-box entry subcircuit for sky130_fd_sc_hd__a31o_2 abstract view
.subckt sky130_fd_sc_hd__a31o_2 A1 A2 A3 B1 VGND VNB VPB VPWR X
.ends

* Black-box entry subcircuit for sky130_fd_sc_hd__dfrtp_1 abstract view
.subckt sky130_fd_sc_hd__dfrtp_1 CLK D RESET_B VGND VNB VPB VPWR Q
.ends

* Black-box entry subcircuit for sky130_fd_sc_hd__nor2_8 abstract view
.subckt sky130_fd_sc_hd__nor2_8 A B VGND VNB VPB VPWR Y
.ends

* Black-box entry subcircuit for sky130_fd_sc_hd__clkinv_4 abstract view
.subckt sky130_fd_sc_hd__clkinv_4 A VGND VNB VPB VPWR Y
.ends

* Black-box entry subcircuit for sky130_fd_sc_hd__a221o_1 abstract view
.subckt sky130_fd_sc_hd__a221o_1 A1 A2 B1 B2 C1 VGND VNB VPB VPWR X
.ends

* Black-box entry subcircuit for sky130_fd_sc_hd__buf_8 abstract view
.subckt sky130_fd_sc_hd__buf_8 A VGND VNB VPB VPWR X
.ends

* Black-box entry subcircuit for sky130_fd_sc_hd__clkbuf_8 abstract view
.subckt sky130_fd_sc_hd__clkbuf_8 A VGND VNB VPB VPWR X
.ends

* Black-box entry subcircuit for sky130_fd_sc_hd__a2bb2o_1 abstract view
.subckt sky130_fd_sc_hd__a2bb2o_1 A1_N A2_N B1 B2 VGND VNB VPB VPWR X
.ends

* Black-box entry subcircuit for sky130_fd_sc_hd__a21o_1 abstract view
.subckt sky130_fd_sc_hd__a21o_1 A1 A2 B1 VGND VNB VPB VPWR X
.ends

* Black-box entry subcircuit for sky130_fd_sc_hd__a2bb2oi_1 abstract view
.subckt sky130_fd_sc_hd__a2bb2oi_1 A1_N A2_N B1 B2 VGND VNB VPB VPWR Y
.ends

* Black-box entry subcircuit for sky130_fd_sc_hd__conb_1 abstract view
.subckt sky130_fd_sc_hd__conb_1 VGND VNB VPB VPWR HI LO
.ends

* Black-box entry subcircuit for sky130_fd_sc_hd__a22o_1 abstract view
.subckt sky130_fd_sc_hd__a22o_1 A1 A2 B1 B2 VGND VNB VPB VPWR X
.ends

* Black-box entry subcircuit for sky130_fd_sc_hd__a32o_1 abstract view
.subckt sky130_fd_sc_hd__a32o_1 A1 A2 A3 B1 B2 VGND VNB VPB VPWR X
.ends

* Black-box entry subcircuit for sky130_fd_sc_hd__nand2_4 abstract view
.subckt sky130_fd_sc_hd__nand2_4 A B VGND VNB VPB VPWR Y
.ends

* Black-box entry subcircuit for sky130_fd_sc_hd__and3_2 abstract view
.subckt sky130_fd_sc_hd__and3_2 A B C VGND VNB VPB VPWR X
.ends

* Black-box entry subcircuit for sky130_fd_sc_hd__inv_4 abstract view
.subckt sky130_fd_sc_hd__inv_4 A VGND VNB VPB VPWR Y
.ends

.subckt dac_digital_interface output_binary_o[0] output_binary_o[1] output_thermometer_o[252]
+ output_thermometer_o[29] output_thermometer_o[58] output_thermometer_o[91] output_thermometer_o[64]
+ output_thermometer_o[15] output_thermometer_o[28] output_thermometer_o[19] output_thermometer_o[128]
+ output_thermometer_o[145] output_thermometer_o[43] output_thermometer_o[239] output_thermometer_o[68]
+ output_thermometer_o[164] output_thermometer_o[131] output_thermometer_o[72] output_thermometer_o[99]
+ output_thermometer_o[143] output_thermometer_o[193] output_thermometer_o[229] output_thermometer_o[67]
+ output_thermometer_o[176] output_thermometer_o[125] output_thermometer_o[59] output_thermometer_o[202]
+ output_thermometer_o[78] output_thermometer_o[116] output_thermometer_o[21] output_thermometer_o[41]
+ output_thermometer_o[3] output_thermometer_o[39] output_thermometer_o[18] output_thermometer_o[77]
+ output_thermometer_o[249] output_thermometer_o[34] output_thermometer_o[102] output_thermometer_o[124]
+ output_thermometer_o[106] output_thermometer_o[14] output_thermometer_o[217] output_thermometer_o[112]
+ output_thermometer_o[156] output_thermometer_o[189] output_thermometer_o[196] output_thermometer_o[152]
+ output_thermometer_o[215] output_thermometer_o[92] output_thermometer_o[171] output_thermometer_o[94]
+ output_thermometer_o[42] output_thermometer_o[79] output_thermometer_o[144] output_thermometer_o[150]
+ output_thermometer_o[137] output_thermometer_o[83] output_thermometer_o[245] output_thermometer_o[82]
+ output_thermometer_o[180] output_thermometer_o[54] output_thermometer_o[123] output_thermometer_o[37]
+ output_thermometer_o[26] output_thermometer_o[46] output_thermometer_o[11] output_thermometer_o[88]
+ output_thermometer_o[121] output_thermometer_o[186] output_thermometer_o[212] output_thermometer_o[194]
+ output_thermometer_o[244] output_thermometer_o[182] output_thermometer_o[120] output_thermometer_o[52]
+ output_thermometer_o[223] output_thermometer_o[25] output_thermometer_o[172] output_thermometer_o[197]
+ output_thermometer_o[232] output_thermometer_o[242] output_thermometer_o[203] output_thermometer_o[95]
+ output_thermometer_o[130] output_thermometer_o[195] output_thermometer_o[228] output_thermometer_o[230]
+ output_thermometer_o[63] output_thermometer_o[9] output_thermometer_o[201] output_thermometer_o[183]
+ output_thermometer_o[237] output_thermometer_o[44] output_thermometer_o[134] output_thermometer_o[35]
+ output_thermometer_o[113] output_thermometer_o[73] output_thermometer_o[4] output_thermometer_o[219]
+ output_thermometer_o[0] output_thermometer_o[221] output_thermometer_o[96] output_thermometer_o[74]
+ output_thermometer_o[207] output_thermometer_o[127] output_thermometer_o[20] output_thermometer_o[24]
+ output_thermometer_o[246] output_thermometer_o[153] output_thermometer_o[154] output_thermometer_o[155]
+ output_thermometer_o[170] output_thermometer_o[160] output_thermometer_o[100] output_thermometer_o[85]
+ output_thermometer_o[192] output_thermometer_o[48] output_thermometer_o[139] output_thermometer_o[248]
+ output_thermometer_o[190] output_thermometer_o[109] output_thermometer_o[81] output_thermometer_o[12]
+ output_thermometer_o[133] output_thermometer_o[167] output_thermometer_o[204] output_thermometer_o[222]
+ output_thermometer_o[142] output_thermometer_o[199] output_thermometer_o[240] output_thermometer_o[103]
+ output_thermometer_o[138] output_thermometer_o[97] output_thermometer_o[89] output_thermometer_o[175]
+ output_thermometer_o[84] output_thermometer_o[250] output_thermometer_o[251] output_thermometer_o[162]
+ output_thermometer_o[10] output_thermometer_o[6] output_thermometer_o[148] output_thermometer_o[110]
+ output_thermometer_o[98] output_thermometer_o[146] output_thermometer_o[225] output_thermometer_o[108]
+ output_thermometer_o[53] output_thermometer_o[115] output_thermometer_o[62] output_thermometer_o[169]
+ output_thermometer_o[5] output_thermometer_o[140] output_thermometer_o[49] output_thermometer_o[149]
+ output_thermometer_o[118] output_thermometer_o[191] output_thermometer_o[168] output_thermometer_o[135]
+ output_thermometer_o[141] output_thermometer_o[90] output_thermometer_o[2] output_thermometer_o[213]
+ output_thermometer_o[93] output_thermometer_o[173] output_thermometer_o[55] output_thermometer_o[105]
+ output_thermometer_o[101] output_thermometer_o[111] output_thermometer_o[205] output_thermometer_o[132]
+ output_thermometer_o[159] output_thermometer_o[32] output_thermometer_o[233] output_thermometer_o[208]
+ output_thermometer_o[16] output_thermometer_o[163] output_thermometer_o[178] output_thermometer_o[86]
+ output_thermometer_o[188] output_thermometer_o[200] output_thermometer_o[104] output_thermometer_o[136]
+ output_thermometer_o[33] output_thermometer_o[174] output_thermometer_o[209] output_thermometer_o[206]
+ output_thermometer_o[129] output_thermometer_o[70] output_thermometer_o[38] output_thermometer_o[187]
+ output_thermometer_o[23] output_thermometer_o[224] output_thermometer_o[179] output_thermometer_o[117]
+ output_thermometer_o[236] output_thermometer_o[114] output_thermometer_o[13] output_thermometer_o[177]
+ output_thermometer_o[231] output_thermometer_o[45] output_thermometer_o[254] output_thermometer_o[161]
+ output_thermometer_o[238] output_thermometer_o[47] output_thermometer_o[147] output_thermometer_o[30]
+ output_thermometer_o[218] output_thermometer_o[211] output_thermometer_o[40] output_thermometer_o[57]
+ output_thermometer_o[8] output_thermometer_o[50] output_thermometer_o[36] output_thermometer_o[210]
+ output_thermometer_o[27] output_thermometer_o[51] output_thermometer_o[165] output_thermometer_o[60]
+ output_thermometer_o[65] output_thermometer_o[253] output_thermometer_o[71] output_thermometer_o[181]
+ output_thermometer_o[107] output_thermometer_o[234] output_thermometer_o[17] output_thermometer_o[216]
+ output_thermometer_o[56] output_thermometer_o[119] output_thermometer_o[166] output_thermometer_o[61]
+ output_thermometer_o[126] output_thermometer_o[185] output_thermometer_o[241] output_thermometer_o[220]
+ output_thermometer_o[243] output_thermometer_o[87] output_thermometer_o[122] output_thermometer_o[1]
+ output_thermometer_o[151] output_thermometer_o[76] output_thermometer_o[22] output_thermometer_o[66]
+ output_thermometer_o[158] output_thermometer_o[198] output_thermometer_o[31] output_thermometer_o[184]
+ output_thermometer_o[80] output_thermometer_o[7] output_thermometer_o[75] output_thermometer_o[247]
+ output_thermometer_o[157] output_thermometer_o[226] output_thermometer_o[227] output_thermometer_o[69]
+ output_thermometer_o[255] output_thermometer_o[214] output_thermometer_o[235] clk_i
+ rst_ni randomise_en_i input_binary_i[0] input_binary_i[1] input_binary_i[2] input_binary_i[3]
+ input_binary_i[4] input_binary_i[5] input_binary_i[6] input_binary_i[7] input_binary_i[8]
+ input_binary_i[9] VPWR VGND
X_3155_ _2687_/Y _2685_/Y _3347_/S VGND VGND VPWR VPWR _3155_/X sky130_fd_sc_hd__mux2_4
XFILLER_27_406 VGND VGND VPWR VPWR sky130_fd_sc_hd__fill_1
X_2106_ _1777_/X _2790_/B _2097_/X _3021_/A _2105_/X VGND VGND VPWR VPWR _2106_/Y
+ sky130_fd_sc_hd__o221ai_2
XFILLER_54_214 VGND VGND VPWR VPWR sky130_fd_sc_hd__decap_8
X_3086_ _3110_/A VGND VGND VPWR VPWR _3107_/A sky130_fd_sc_hd__clkbuf_2
X_2037_ _1992_/X _2019_/X _2020_/X _2526_/A _2023_/X VGND VGND VPWR VPWR _3000_/B
+ sky130_fd_sc_hd__o41a_2
XFILLER_54_258 VGND VGND VPWR VPWR sky130_fd_sc_hd__decap_4
XFILLER_22_144 VGND VGND VPWR VPWR sky130_fd_sc_hd__decap_4
XFILLER_22_155 VGND VGND VPWR VPWR sky130_fd_sc_hd__decap_4
X_2939_ _2939_/A VGND VGND VPWR VPWR _3001_/A sky130_fd_sc_hd__buf_2
XFILLER_22_177 VGND VGND VPWR VPWR sky130_fd_sc_hd__fill_1
XFILLER_22_199 VGND VGND VPWR VPWR sky130_fd_sc_hd__fill_1
XFILLER_45_214 VGND VGND VPWR VPWR sky130_fd_sc_hd__fill_2
XFILLER_26_30 VGND VGND VPWR VPWR sky130_fd_sc_hd__decap_12
XFILLER_45_247 VGND VGND VPWR VPWR sky130_fd_sc_hd__fill_1
XFILLER_26_85 VGND VGND VPWR VPWR sky130_fd_sc_hd__fill_1
XFILLER_9_115 VGND VGND VPWR VPWR sky130_fd_sc_hd__decap_4
XFILLER_9_137 VGND VGND VPWR VPWR sky130_fd_sc_hd__fill_1
XFILLER_42_51 VGND VGND VPWR VPWR sky130_fd_sc_hd__decap_12
XFILLER_9_159 VGND VGND VPWR VPWR sky130_fd_sc_hd__fill_1
XFILLER_5_343 VGND VGND VPWR VPWR sky130_fd_sc_hd__decap_4
XFILLER_5_398 VGND VGND VPWR VPWR sky130_fd_sc_hd__fill_1
XFILLER_68_328 VGND VGND VPWR VPWR sky130_fd_sc_hd__decap_4
XFILLER_3_56 VGND VGND VPWR VPWR sky130_fd_sc_hd__fill_1
XFILLER_36_236 VGND VGND VPWR VPWR sky130_fd_sc_hd__decap_6
XFILLER_36_258 VGND VGND VPWR VPWR sky130_fd_sc_hd__decap_4
XFILLER_36_269 VGND VGND VPWR VPWR sky130_fd_sc_hd__decap_8
X_2724_ _2724_/A _2956_/B VGND VGND VPWR VPWR _2724_/X sky130_fd_sc_hd__or2_1
X_2655_ _3111_/B _2653_/X _2171_/A _2881_/B _2654_/X VGND VGND VPWR VPWR _2655_/Y
+ sky130_fd_sc_hd__o221ai_1
X_1606_ _2401_/A _2407_/A VGND VGND VPWR VPWR _2669_/B sky130_fd_sc_hd__nor2_2
X_2586_ _3027_/A VGND VGND VPWR VPWR _2662_/A sky130_fd_sc_hd__clkbuf_2
X_3207_ _2876_/Y _2335_/A _3351_/S VGND VGND VPWR VPWR _3207_/X sky130_fd_sc_hd__mux2_2
XFILLER_27_203 VGND VGND VPWR VPWR sky130_fd_sc_hd__decap_4
X_3138_ _2628_/Y _2625_/Y _3330_/S VGND VGND VPWR VPWR _3138_/X sky130_fd_sc_hd__mux2_1
XFILLER_42_217 VGND VGND VPWR VPWR sky130_fd_sc_hd__fill_2
X_3069_ _3108_/A _3069_/B VGND VGND VPWR VPWR _3069_/X sky130_fd_sc_hd__or2_1
XFILLER_10_103 VGND VGND VPWR VPWR sky130_fd_sc_hd__decap_4
XFILLER_12_10 VGND VGND VPWR VPWR sky130_fd_sc_hd__fill_1
XFILLER_12_87 VGND VGND VPWR VPWR sky130_fd_sc_hd__decap_4
XFILLER_2_379 VGND VGND VPWR VPWR sky130_fd_sc_hd__decap_12
XFILLER_58_361 VGND VGND VPWR VPWR sky130_fd_sc_hd__decap_8
XFILLER_58_372 VGND VGND VPWR VPWR sky130_fd_sc_hd__decap_12
XFILLER_18_247 VGND VGND VPWR VPWR sky130_fd_sc_hd__decap_8
XFILLER_18_258 VGND VGND VPWR VPWR sky130_fd_sc_hd__decap_4
XFILLER_33_217 VGND VGND VPWR VPWR sky130_fd_sc_hd__decap_4
XFILLER_33_239 VGND VGND VPWR VPWR sky130_fd_sc_hd__decap_4
XFILLER_53_50 VGND VGND VPWR VPWR sky130_fd_sc_hd__decap_6
XFILLER_41_261 VGND VGND VPWR VPWR sky130_fd_sc_hd__decap_4
XFILLER_53_83 VGND VGND VPWR VPWR sky130_fd_sc_hd__decap_4
XFILLER_41_294 VGND VGND VPWR VPWR sky130_fd_sc_hd__decap_4
X_2440_ _2440_/A _2803_/B VGND VGND VPWR VPWR _2440_/X sky130_fd_sc_hd__or2_1
X_2371_ _2380_/A _2373_/A VGND VGND VPWR VPWR _2656_/B sky130_fd_sc_hd__nor2_4
XFILLER_68_125 VGND VGND VPWR VPWR sky130_fd_sc_hd__decap_4
XFILLER_24_217 VGND VGND VPWR VPWR sky130_fd_sc_hd__decap_4
XFILLER_24_228 VGND VGND VPWR VPWR sky130_fd_sc_hd__decap_4
XFILLER_32_250 VGND VGND VPWR VPWR sky130_fd_sc_hd__decap_6
X_2707_ _2718_/A _2707_/B VGND VGND VPWR VPWR _2707_/Y sky130_fd_sc_hd__nor2_1
Xoutput253 _3204_/X VGND VGND VPWR VPWR output_thermometer_o[76] sky130_fd_sc_hd__clkbuf_2
Xoutput231 _3188_/X VGND VGND VPWR VPWR output_thermometer_o[60] sky130_fd_sc_hd__clkbuf_2
Xoutput220 _3346_/X VGND VGND VPWR VPWR output_thermometer_o[218] sky130_fd_sc_hd__clkbuf_2
X_2638_ _3093_/B _2630_/X _2626_/X _2868_/B _2637_/X VGND VGND VPWR VPWR _2638_/Y
+ sky130_fd_sc_hd__o221ai_1
Xoutput242 _3294_/X VGND VGND VPWR VPWR output_thermometer_o[166] sky130_fd_sc_hd__clkbuf_2
X_2569_ _2811_/B _2390_/X _3042_/B _2206_/X VGND VGND VPWR VPWR _2569_/X sky130_fd_sc_hd__o22a_1
XFILLER_59_103 VGND VGND VPWR VPWR sky130_fd_sc_hd__fill_1
Xoutput264 _3285_/X VGND VGND VPWR VPWR output_thermometer_o[157] sky130_fd_sc_hd__clkbuf_2
XFILLER_23_250 VGND VGND VPWR VPWR sky130_fd_sc_hd__decap_4
XFILLER_30_209 VGND VGND VPWR VPWR sky130_fd_sc_hd__decap_6
XFILLER_23_261 VGND VGND VPWR VPWR sky130_fd_sc_hd__decap_4
XFILLER_23_272 VGND VGND VPWR VPWR sky130_fd_sc_hd__decap_4
XFILLER_23_294 VGND VGND VPWR VPWR sky130_fd_sc_hd__decap_4
XFILLER_23_86 VGND VGND VPWR VPWR sky130_fd_sc_hd__fill_2
XFILLER_48_50 VGND VGND VPWR VPWR sky130_fd_sc_hd__decap_4
XFILLER_17_9 VGND VGND VPWR VPWR sky130_fd_sc_hd__fill_1
XFILLER_58_180 VGND VGND VPWR VPWR sky130_fd_sc_hd__decap_4
XFILLER_58_191 VGND VGND VPWR VPWR sky130_fd_sc_hd__decap_8
XFILLER_0_46 VGND VGND VPWR VPWR sky130_fd_sc_hd__decap_4
XFILLER_61_312 VGND VGND VPWR VPWR sky130_fd_sc_hd__decap_4
XFILLER_64_82 VGND VGND VPWR VPWR sky130_fd_sc_hd__decap_4
XFILLER_61_356 VGND VGND VPWR VPWR sky130_fd_sc_hd__decap_12
X_1940_ _1964_/A _1940_/B VGND VGND VPWR VPWR _2737_/B sky130_fd_sc_hd__nor2_2
X_1871_ _2157_/A VGND VGND VPWR VPWR _1871_/X sky130_fd_sc_hd__clkbuf_4
XFILLER_50_3 VGND VGND VPWR VPWR sky130_fd_sc_hd__decap_8
X_2423_ _2422_/X _2916_/B _2917_/A _2415_/X VGND VGND VPWR VPWR _2423_/X sky130_fd_sc_hd__o22a_1
X_2354_ _2291_/X _2650_/A _2898_/A VGND VGND VPWR VPWR _2878_/B sky130_fd_sc_hd__o21a_1
X_2285_ _2286_/A _2317_/B VGND VGND VPWR VPWR _3083_/B sky130_fd_sc_hd__nor2_2
XFILLER_37_320 VGND VGND VPWR VPWR sky130_fd_sc_hd__decap_4
XFILLER_56_139 VGND VGND VPWR VPWR sky130_fd_sc_hd__decap_4
XFILLER_52_323 VGND VGND VPWR VPWR sky130_fd_sc_hd__decap_4
XFILLER_64_194 VGND VGND VPWR VPWR sky130_fd_sc_hd__decap_6
XFILLER_12_209 VGND VGND VPWR VPWR sky130_fd_sc_hd__decap_4
XFILLER_20_220 VGND VGND VPWR VPWR sky130_fd_sc_hd__decap_8
XFILLER_20_264 VGND VGND VPWR VPWR sky130_fd_sc_hd__fill_1
XFILLER_18_20 VGND VGND VPWR VPWR sky130_fd_sc_hd__decap_8
XFILLER_18_64 VGND VGND VPWR VPWR sky130_fd_sc_hd__fill_1
XFILLER_55_172 VGND VGND VPWR VPWR sky130_fd_sc_hd__decap_4
XFILLER_34_30 VGND VGND VPWR VPWR sky130_fd_sc_hd__decap_8
XPHY_510 VGND VPWR sky130_fd_sc_hd__tapvpwrvgnd_1
XFILLER_34_52 VGND VGND VPWR VPWR sky130_fd_sc_hd__decap_4
XPHY_521 VGND VPWR sky130_fd_sc_hd__tapvpwrvgnd_1
XPHY_532 VGND VPWR sky130_fd_sc_hd__tapvpwrvgnd_1
XPHY_543 VGND VPWR sky130_fd_sc_hd__tapvpwrvgnd_1
XPHY_554 VGND VPWR sky130_fd_sc_hd__tapvpwrvgnd_1
XPHY_565 VGND VPWR sky130_fd_sc_hd__tapvpwrvgnd_1
XPHY_576 VGND VPWR sky130_fd_sc_hd__tapvpwrvgnd_1
XPHY_587 VGND VPWR sky130_fd_sc_hd__tapvpwrvgnd_1
XFILLER_11_264 VGND VGND VPWR VPWR sky130_fd_sc_hd__fill_2
XFILLER_7_213 VGND VGND VPWR VPWR sky130_fd_sc_hd__decap_4
XPHY_598 VGND VPWR sky130_fd_sc_hd__tapvpwrvgnd_1
XFILLER_11_286 VGND VGND VPWR VPWR sky130_fd_sc_hd__decap_4
XFILLER_50_51 VGND VGND VPWR VPWR sky130_fd_sc_hd__decap_4
XFILLER_66_404 VGND VGND VPWR VPWR sky130_fd_sc_hd__decap_3
X_2070_ _2081_/A _2070_/B VGND VGND VPWR VPWR _2781_/B sky130_fd_sc_hd__nor2_4
XFILLER_38_139 VGND VGND VPWR VPWR sky130_fd_sc_hd__decap_4
XFILLER_34_312 VGND VGND VPWR VPWR sky130_fd_sc_hd__fill_2
XFILLER_34_323 VGND VGND VPWR VPWR sky130_fd_sc_hd__fill_2
XFILLER_34_367 VGND VGND VPWR VPWR sky130_fd_sc_hd__decap_4
X_2972_ _2975_/A _2972_/B VGND VGND VPWR VPWR _2972_/X sky130_fd_sc_hd__or2_1
X_1923_ _1871_/X _2486_/A _1875_/X VGND VGND VPWR VPWR _1927_/B sky130_fd_sc_hd__o21ai_2
X_1854_ _2087_/A VGND VGND VPWR VPWR _1854_/X sky130_fd_sc_hd__buf_2
X_1785_ _2391_/A VGND VGND VPWR VPWR _2301_/A sky130_fd_sc_hd__clkbuf_2
X_2406_ _2406_/A VGND VGND VPWR VPWR _2406_/Y sky130_fd_sc_hd__inv_2
XFILLER_39_19 VGND VGND VPWR VPWR sky130_fd_sc_hd__decap_4
X_3386_ _3408_/CLK input7/X VGND VGND VPWR VPWR _3386_/Q sky130_fd_sc_hd__dfxtp_1
X_2337_ _2324_/X _2327_/Y _2336_/X VGND VGND VPWR VPWR _2337_/Y sky130_fd_sc_hd__o21ai_1
XFILLER_29_139 VGND VGND VPWR VPWR sky130_fd_sc_hd__fill_2
X_2268_ _2329_/B _2268_/B VGND VGND VPWR VPWR _2269_/A sky130_fd_sc_hd__nor2_1
XFILLER_55_29 VGND VGND VPWR VPWR sky130_fd_sc_hd__fill_2
X_2199_ _2219_/A _2199_/B VGND VGND VPWR VPWR _3054_/B sky130_fd_sc_hd__nand2_1
XFILLER_37_172 VGND VGND VPWR VPWR sky130_fd_sc_hd__decap_4
XFILLER_52_153 VGND VGND VPWR VPWR sky130_fd_sc_hd__decap_6
XFILLER_40_315 VGND VGND VPWR VPWR sky130_fd_sc_hd__decap_8
XFILLER_52_164 VGND VGND VPWR VPWR sky130_fd_sc_hd__decap_4
XFILLER_4_238 VGND VGND VPWR VPWR sky130_fd_sc_hd__decap_4
XFILLER_20_65 VGND VGND VPWR VPWR sky130_fd_sc_hd__decap_4
XFILLER_20_87 VGND VGND VPWR VPWR sky130_fd_sc_hd__decap_4
XFILLER_28_150 VGND VGND VPWR VPWR sky130_fd_sc_hd__fill_1
XFILLER_16_323 VGND VGND VPWR VPWR sky130_fd_sc_hd__decap_4
XFILLER_16_367 VGND VGND VPWR VPWR sky130_fd_sc_hd__decap_4
XFILLER_45_95 VGND VGND VPWR VPWR sky130_fd_sc_hd__decap_4
XPHY_340 VGND VPWR sky130_fd_sc_hd__tapvpwrvgnd_1
XPHY_351 VGND VPWR sky130_fd_sc_hd__tapvpwrvgnd_1
XPHY_362 VGND VPWR sky130_fd_sc_hd__tapvpwrvgnd_1
XPHY_373 VGND VPWR sky130_fd_sc_hd__tapvpwrvgnd_1
XPHY_384 VGND VPWR sky130_fd_sc_hd__tapvpwrvgnd_1
XPHY_395 VGND VPWR sky130_fd_sc_hd__tapvpwrvgnd_1
XANTENNA_5 _3295_/X VGND VGND VPWR VPWR sky130_fd_sc_hd__diode_2
X_1570_ _1570_/A _2329_/B VGND VGND VPWR VPWR _1601_/A sky130_fd_sc_hd__or2_1
X_3240_ _2995_/Y _2992_/Y _3370_/S VGND VGND VPWR VPWR _3240_/X sky130_fd_sc_hd__mux2_2
X_3171_ _2745_/Y _2741_/Y _3365_/S VGND VGND VPWR VPWR _3171_/X sky130_fd_sc_hd__mux2_4
XFILLER_66_201 VGND VGND VPWR VPWR sky130_fd_sc_hd__decap_6
XFILLER_13_3 VGND VGND VPWR VPWR sky130_fd_sc_hd__decap_4
X_2122_ _2156_/A _2122_/B VGND VGND VPWR VPWR _2798_/B sky130_fd_sc_hd__nor2_4
XFILLER_66_212 VGND VGND VPWR VPWR sky130_fd_sc_hd__decap_4
X_2053_ _2034_/X _3003_/B _2025_/X _2772_/B _2052_/X VGND VGND VPWR VPWR _2053_/Y
+ sky130_fd_sc_hd__o221ai_1
XFILLER_19_172 VGND VGND VPWR VPWR sky130_fd_sc_hd__decap_4
XFILLER_34_142 VGND VGND VPWR VPWR sky130_fd_sc_hd__fill_1
XFILLER_22_304 VGND VGND VPWR VPWR sky130_fd_sc_hd__fill_1
XFILLER_22_315 VGND VGND VPWR VPWR sky130_fd_sc_hd__decap_4
XFILLER_22_348 VGND VGND VPWR VPWR sky130_fd_sc_hd__decap_6
X_2955_ _2967_/A _2955_/B VGND VGND VPWR VPWR _2955_/Y sky130_fd_sc_hd__nor2_1
X_1906_ _1854_/X _2958_/B _1902_/X _2726_/B _1905_/X VGND VGND VPWR VPWR _1906_/Y
+ sky130_fd_sc_hd__o221ai_1
X_2886_ _2886_/A _2886_/B VGND VGND VPWR VPWR _2886_/Y sky130_fd_sc_hd__nor2_1
X_1837_ _1843_/B VGND VGND VPWR VPWR _1838_/B sky130_fd_sc_hd__inv_2
X_1768_ _2185_/A _1769_/C VGND VGND VPWR VPWR _2434_/A sky130_fd_sc_hd__or2_2
X_1699_ _3385_/Q _3384_/Q _1847_/A VGND VGND VPWR VPWR _1759_/B sky130_fd_sc_hd__a21oi_2
X_3369_ _2525_/Y _2522_/Y _3374_/S VGND VGND VPWR VPWR _3369_/X sky130_fd_sc_hd__mux2_2
XFILLER_66_17 VGND VGND VPWR VPWR sky130_fd_sc_hd__decap_4
XFILLER_17_109 VGND VGND VPWR VPWR sky130_fd_sc_hd__decap_4
XFILLER_13_304 VGND VGND VPWR VPWR sky130_fd_sc_hd__decap_4
XFILLER_13_359 VGND VGND VPWR VPWR sky130_fd_sc_hd__decap_4
XFILLER_25_186 VGND VGND VPWR VPWR sky130_fd_sc_hd__decap_8
Xoutput20 _3143_/X VGND VGND VPWR VPWR output_thermometer_o[15] sky130_fd_sc_hd__clkbuf_2
Xoutput31 _3227_/X VGND VGND VPWR VPWR output_thermometer_o[99] sky130_fd_sc_hd__clkbuf_2
Xoutput42 _3149_/X VGND VGND VPWR VPWR output_thermometer_o[21] sky130_fd_sc_hd__clkbuf_2
Xoutput53 _3142_/X VGND VGND VPWR VPWR output_thermometer_o[14] sky130_fd_sc_hd__clkbuf_2
Xoutput75 _3165_/X VGND VGND VPWR VPWR output_thermometer_o[37] sky130_fd_sc_hd__clkbuf_2
Xoutput64 _3170_/X VGND VGND VPWR VPWR output_thermometer_o[42] sky130_fd_sc_hd__clkbuf_2
Xoutput86 _3248_/X VGND VGND VPWR VPWR output_thermometer_o[120] sky130_fd_sc_hd__clkbuf_2
Xoutput97 _3323_/X VGND VGND VPWR VPWR output_thermometer_o[195] sky130_fd_sc_hd__clkbuf_2
XFILLER_48_201 VGND VGND VPWR VPWR sky130_fd_sc_hd__decap_6
XFILLER_48_256 VGND VGND VPWR VPWR sky130_fd_sc_hd__fill_1
XFILLER_48_278 VGND VGND VPWR VPWR sky130_fd_sc_hd__decap_6
XFILLER_56_72 VGND VGND VPWR VPWR sky130_fd_sc_hd__decap_3
XFILLER_63_215 VGND VGND VPWR VPWR sky130_fd_sc_hd__decap_4
XFILLER_63_237 VGND VGND VPWR VPWR sky130_fd_sc_hd__decap_4
XFILLER_16_164 VGND VGND VPWR VPWR sky130_fd_sc_hd__decap_4
XFILLER_31_112 VGND VGND VPWR VPWR sky130_fd_sc_hd__fill_2
XPHY_170 VGND VPWR sky130_fd_sc_hd__tapvpwrvgnd_1
XFILLER_31_167 VGND VGND VPWR VPWR sky130_fd_sc_hd__decap_4
XPHY_192 VGND VPWR sky130_fd_sc_hd__tapvpwrvgnd_1
XPHY_181 VGND VPWR sky130_fd_sc_hd__tapvpwrvgnd_1
XFILLER_31_178 VGND VGND VPWR VPWR sky130_fd_sc_hd__fill_1
XFILLER_31_189 VGND VGND VPWR VPWR sky130_fd_sc_hd__decap_4
X_2740_ _2759_/A VGND VGND VPWR VPWR _2756_/A sky130_fd_sc_hd__clkbuf_2
X_2671_ _2900_/B _2545_/X _2670_/X VGND VGND VPWR VPWR _2671_/Y sky130_fd_sc_hd__o21ai_1
X_1622_ _2832_/A VGND VGND VPWR VPWR _1622_/X sky130_fd_sc_hd__clkbuf_2
XFILLER_8_396 VGND VGND VPWR VPWR sky130_fd_sc_hd__decap_8
X_3223_ _2933_/Y _2931_/Y _3351_/S VGND VGND VPWR VPWR _3223_/X sky130_fd_sc_hd__mux2_2
XFILLER_39_212 VGND VGND VPWR VPWR sky130_fd_sc_hd__decap_8
X_3154_ _2684_/Y _2681_/Y _3346_/S VGND VGND VPWR VPWR _3154_/X sky130_fd_sc_hd__mux2_2
XFILLER_39_245 VGND VGND VPWR VPWR sky130_fd_sc_hd__decap_4
XFILLER_39_256 VGND VGND VPWR VPWR sky130_fd_sc_hd__decap_8
X_2105_ _2548_/A _2993_/B _2879_/C VGND VGND VPWR VPWR _2105_/X sky130_fd_sc_hd__or3_1
XFILLER_39_278 VGND VGND VPWR VPWR sky130_fd_sc_hd__decap_6