* NGSPICE file created from dac_digital_interface.ext - technology: sky130A

* Black-box entry subcircuit for sky130_fd_sc_hd__mux2_1 abstract view
.subckt sky130_fd_sc_hd__mux2_1 A0 A1 S VGND VNB VPB VPWR X
.ends

* Black-box entry subcircuit for sky130_fd_sc_hd__nor2_1 abstract view
.subckt sky130_fd_sc_hd__nor2_1 A B VGND VNB VPB VPWR Y
.ends

* Black-box entry subcircuit for sky130_fd_sc_hd__decap_6 abstract view
.subckt sky130_fd_sc_hd__decap_6 VGND VNB VPB VPWR
.ends

* Black-box entry subcircuit for sky130_fd_sc_hd__a21oi_1 abstract view
.subckt sky130_fd_sc_hd__a21oi_1 A1 A2 B1 VGND VNB VPB VPWR Y
.ends

* Black-box entry subcircuit for sky130_fd_sc_hd__decap_4 abstract view
.subckt sky130_fd_sc_hd__decap_4 VGND VNB VPB VPWR
.ends

* Black-box entry subcircuit for sky130_fd_sc_hd__fill_1 abstract view
.subckt sky130_fd_sc_hd__fill_1 VGND VNB VPB VPWR
.ends

* Black-box entry subcircuit for sky130_fd_sc_hd__decap_12 abstract view
.subckt sky130_fd_sc_hd__decap_12 VGND VNB VPB VPWR
.ends

* Black-box entry subcircuit for sky130_fd_sc_hd__buf_1 abstract view
.subckt sky130_fd_sc_hd__buf_1 A VGND VNB VPB VPWR X
.ends

* Black-box entry subcircuit for sky130_fd_sc_hd__fill_2 abstract view
.subckt sky130_fd_sc_hd__fill_2 VGND VNB VPB VPWR
.ends

* Black-box entry subcircuit for sky130_fd_sc_hd__decap_8 abstract view
.subckt sky130_fd_sc_hd__decap_8 VGND VNB VPB VPWR
.ends

* Black-box entry subcircuit for sky130_fd_sc_hd__clkbuf_2 abstract view
.subckt sky130_fd_sc_hd__clkbuf_2 A VGND VNB VPB VPWR X
.ends

* Black-box entry subcircuit for sky130_fd_sc_hd__and3_1 abstract view
.subckt sky130_fd_sc_hd__and3_1 A B C VGND VNB VPB VPWR X
.ends

* Black-box entry subcircuit for sky130_fd_sc_hd__a221o_1 abstract view
.subckt sky130_fd_sc_hd__a221o_1 A1 A2 B1 B2 C1 VGND VNB VPB VPWR X
.ends

* Black-box entry subcircuit for sky130_fd_sc_hd__mux2_2 abstract view
.subckt sky130_fd_sc_hd__mux2_2 A0 A1 S VGND VNB VPB VPWR X
.ends

* Black-box entry subcircuit for sky130_fd_sc_hd__tapvpwrvgnd_1 abstract view
.subckt sky130_fd_sc_hd__tapvpwrvgnd_1 VGND VPWR
.ends

* Black-box entry subcircuit for sky130_fd_sc_hd__decap_3 abstract view
.subckt sky130_fd_sc_hd__decap_3 VGND VNB VPB VPWR
.ends

* Black-box entry subcircuit for sky130_fd_sc_hd__dfrtp_1 abstract view
.subckt sky130_fd_sc_hd__dfrtp_1 CLK D RESET_B VGND VNB VPB VPWR Q
.ends

* Black-box entry subcircuit for sky130_fd_sc_hd__dfxtp_1 abstract view
.subckt sky130_fd_sc_hd__dfxtp_1 CLK D VGND VNB VPB VPWR Q
.ends

* Black-box entry subcircuit for sky130_fd_sc_hd__clkbuf_4 abstract view
.subckt sky130_fd_sc_hd__clkbuf_4 A VGND VNB VPB VPWR X
.ends

* Black-box entry subcircuit for sky130_fd_sc_hd__inv_2 abstract view
.subckt sky130_fd_sc_hd__inv_2 A VGND VNB VPB VPWR Y
.ends

* Black-box entry subcircuit for sky130_fd_sc_hd__buf_2 abstract view
.subckt sky130_fd_sc_hd__buf_2 A VGND VNB VPB VPWR X
.ends

* Black-box entry subcircuit for sky130_fd_sc_hd__xnor2_1 abstract view
.subckt sky130_fd_sc_hd__xnor2_1 A B VGND VNB VPB VPWR Y
.ends

* Black-box entry subcircuit for sky130_fd_sc_hd__o21ai_1 abstract view
.subckt sky130_fd_sc_hd__o21ai_1 A1 A2 B1 VGND VNB VPB VPWR Y
.ends

* Black-box entry subcircuit for sky130_fd_sc_hd__a21oi_4 abstract view
.subckt sky130_fd_sc_hd__a21oi_4 A1 A2 B1 VGND VNB VPB VPWR Y
.ends

* Black-box entry subcircuit for sky130_fd_sc_hd__and2_1 abstract view
.subckt sky130_fd_sc_hd__and2_1 A B VGND VNB VPB VPWR X
.ends

* Black-box entry subcircuit for sky130_fd_sc_hd__diode_2 abstract view
.subckt sky130_fd_sc_hd__diode_2 DIODE VGND VNB VPB VPWR
.ends

* Black-box entry subcircuit for sky130_fd_sc_hd__a41o_1 abstract view
.subckt sky130_fd_sc_hd__a41o_1 A1 A2 A3 A4 B1 VGND VNB VPB VPWR X
.ends

* Black-box entry subcircuit for sky130_fd_sc_hd__buf_4 abstract view
.subckt sky130_fd_sc_hd__buf_4 A VGND VNB VPB VPWR X
.ends

* Black-box entry subcircuit for sky130_fd_sc_hd__o21a_1 abstract view
.subckt sky130_fd_sc_hd__o21a_1 A1 A2 B1 VGND VNB VPB VPWR X
.ends

* Black-box entry subcircuit for sky130_fd_sc_hd__a21oi_2 abstract view
.subckt sky130_fd_sc_hd__a21oi_2 A1 A2 B1 VGND VNB VPB VPWR Y
.ends

* Black-box entry subcircuit for sky130_fd_sc_hd__nand2_1 abstract view
.subckt sky130_fd_sc_hd__nand2_1 A B VGND VNB VPB VPWR Y
.ends

* Black-box entry subcircuit for sky130_fd_sc_hd__nor2_2 abstract view
.subckt sky130_fd_sc_hd__nor2_2 A B VGND VNB VPB VPWR Y
.ends

* Black-box entry subcircuit for sky130_fd_sc_hd__nor2_8 abstract view
.subckt sky130_fd_sc_hd__nor2_8 A B VGND VNB VPB VPWR Y
.ends

* Black-box entry subcircuit for sky130_fd_sc_hd__clkinv_4 abstract view
.subckt sky130_fd_sc_hd__clkinv_4 A VGND VNB VPB VPWR Y
.ends

* Black-box entry subcircuit for sky130_fd_sc_hd__mux2_4 abstract view
.subckt sky130_fd_sc_hd__mux2_4 A0 A1 S VGND VNB VPB VPWR X
.ends

* Black-box entry subcircuit for sky130_fd_sc_hd__dfxtp_2 abstract view
.subckt sky130_fd_sc_hd__dfxtp_2 CLK D VGND VNB VPB VPWR Q
.ends

* Black-box entry subcircuit for sky130_fd_sc_hd__and4_2 abstract view
.subckt sky130_fd_sc_hd__and4_2 A B C D VGND VNB VPB VPWR X
.ends

* Black-box entry subcircuit for sky130_fd_sc_hd__clkbuf_1 abstract view
.subckt sky130_fd_sc_hd__clkbuf_1 A VGND VNB VPB VPWR X
.ends

* Black-box entry subcircuit for sky130_fd_sc_hd__nand3_2 abstract view
.subckt sky130_fd_sc_hd__nand3_2 A B C VGND VNB VPB VPWR Y
.ends

* Black-box entry subcircuit for sky130_fd_sc_hd__nand2_4 abstract view
.subckt sky130_fd_sc_hd__nand2_4 A B VGND VNB VPB VPWR Y
.ends

* Black-box entry subcircuit for sky130_fd_sc_hd__nand3_4 abstract view
.subckt sky130_fd_sc_hd__nand3_4 A B C VGND VNB VPB VPWR Y
.ends

* Black-box entry subcircuit for sky130_fd_sc_hd__a21o_1 abstract view
.subckt sky130_fd_sc_hd__a21o_1 A1 A2 B1 VGND VNB VPB VPWR X
.ends

* Black-box entry subcircuit for sky130_fd_sc_hd__a31o_1 abstract view
.subckt sky130_fd_sc_hd__a31o_1 A1 A2 A3 B1 VGND VNB VPB VPWR X
.ends

* Black-box entry subcircuit for sky130_fd_sc_hd__nor2_4 abstract view
.subckt sky130_fd_sc_hd__nor2_4 A B VGND VNB VPB VPWR Y
.ends

* Black-box entry subcircuit for sky130_fd_sc_hd__a31oi_4 abstract view
.subckt sky130_fd_sc_hd__a31oi_4 A1 A2 A3 B1 VGND VNB VPB VPWR Y
.ends

* Black-box entry subcircuit for sky130_fd_sc_hd__or3b_1 abstract view
.subckt sky130_fd_sc_hd__or3b_1 A B C_N VGND VNB VPB VPWR X
.ends

* Black-box entry subcircuit for sky130_fd_sc_hd__o22ai_1 abstract view
.subckt sky130_fd_sc_hd__o22ai_1 A1 A2 B1 B2 VGND VNB VPB VPWR Y
.ends

* Black-box entry subcircuit for sky130_fd_sc_hd__and3_2 abstract view
.subckt sky130_fd_sc_hd__and3_2 A B C VGND VNB VPB VPWR X
.ends

* Black-box entry subcircuit for sky130_fd_sc_hd__nand2_2 abstract view
.subckt sky130_fd_sc_hd__nand2_2 A B VGND VNB VPB VPWR Y
.ends

* Black-box entry subcircuit for sky130_fd_sc_hd__a31oi_2 abstract view
.subckt sky130_fd_sc_hd__a31oi_2 A1 A2 A3 B1 VGND VNB VPB VPWR Y
.ends

* Black-box entry subcircuit for sky130_fd_sc_hd__a31oi_1 abstract view
.subckt sky130_fd_sc_hd__a31oi_1 A1 A2 A3 B1 VGND VNB VPB VPWR Y
.ends

* Black-box entry subcircuit for sky130_fd_sc_hd__clkbuf_16 abstract view
.subckt sky130_fd_sc_hd__clkbuf_16 A VGND VNB VPB VPWR X
.ends

* Black-box entry subcircuit for sky130_fd_sc_hd__nand2_8 abstract view
.subckt sky130_fd_sc_hd__nand2_8 A B VGND VNB VPB VPWR Y
.ends

* Black-box entry subcircuit for sky130_fd_sc_hd__o31a_1 abstract view
.subckt sky130_fd_sc_hd__o31a_1 A1 A2 A3 B1 VGND VNB VPB VPWR X
.ends

* Black-box entry subcircuit for sky130_fd_sc_hd__buf_6 abstract view
.subckt sky130_fd_sc_hd__buf_6 A VGND VNB VPB VPWR X
.ends

* Black-box entry subcircuit for sky130_fd_sc_hd__o31ai_4 abstract view
.subckt sky130_fd_sc_hd__o31ai_4 A1 A2 A3 B1 VGND VNB VPB VPWR Y
.ends

* Black-box entry subcircuit for sky130_fd_sc_hd__a21o_2 abstract view
.subckt sky130_fd_sc_hd__a21o_2 A1 A2 B1 VGND VNB VPB VPWR X
.ends

* Black-box entry subcircuit for sky130_fd_sc_hd__or3b_2 abstract view
.subckt sky130_fd_sc_hd__or3b_2 A B C_N VGND VNB VPB VPWR X
.ends

* Black-box entry subcircuit for sky130_fd_sc_hd__o22ai_4 abstract view
.subckt sky130_fd_sc_hd__o22ai_4 A1 A2 B1 B2 VGND VNB VPB VPWR Y
.ends

* Black-box entry subcircuit for sky130_fd_sc_hd__nand3_1 abstract view
.subckt sky130_fd_sc_hd__nand3_1 A B C VGND VNB VPB VPWR Y
.ends

* Black-box entry subcircuit for sky130_fd_sc_hd__buf_8 abstract view
.subckt sky130_fd_sc_hd__buf_8 A VGND VNB VPB VPWR X
.ends

* Black-box entry subcircuit for sky130_fd_sc_hd__o21ai_2 abstract view
.subckt sky130_fd_sc_hd__o21ai_2 A1 A2 B1 VGND VNB VPB VPWR Y
.ends

* Black-box entry subcircuit for sky130_fd_sc_hd__dfrtp_2 abstract view
.subckt sky130_fd_sc_hd__dfrtp_2 CLK D RESET_B VGND VNB VPB VPWR Q
.ends

* Black-box entry subcircuit for sky130_fd_sc_hd__clkbuf_8 abstract view
.subckt sky130_fd_sc_hd__clkbuf_8 A VGND VNB VPB VPWR X
.ends

* Black-box entry subcircuit for sky130_fd_sc_hd__dlygate4sd3_1 abstract view
.subckt sky130_fd_sc_hd__dlygate4sd3_1 A VGND VNB VPB VPWR X
.ends

* Black-box entry subcircuit for sky130_fd_sc_hd__o21ai_4 abstract view
.subckt sky130_fd_sc_hd__o21ai_4 A1 A2 B1 VGND VNB VPB VPWR Y
.ends

* Black-box entry subcircuit for sky130_fd_sc_hd__and3_4 abstract view
.subckt sky130_fd_sc_hd__and3_4 A B C VGND VNB VPB VPWR X
.ends

* Black-box entry subcircuit for sky130_fd_sc_hd__or3_1 abstract view
.subckt sky130_fd_sc_hd__or3_1 A B C VGND VNB VPB VPWR X
.ends

* Black-box entry subcircuit for sky130_fd_sc_hd__o22a_4 abstract view
.subckt sky130_fd_sc_hd__o22a_4 A1 A2 B1 B2 VGND VNB VPB VPWR X
.ends

* Black-box entry subcircuit for sky130_fd_sc_hd__o21a_2 abstract view
.subckt sky130_fd_sc_hd__o21a_2 A1 A2 B1 VGND VNB VPB VPWR X
.ends

* Black-box entry subcircuit for sky130_fd_sc_hd__and2_4 abstract view
.subckt sky130_fd_sc_hd__and2_4 A B VGND VNB VPB VPWR X
.ends

* Black-box entry subcircuit for sky130_fd_sc_hd__or2_1 abstract view
.subckt sky130_fd_sc_hd__or2_1 A B VGND VNB VPB VPWR X
.ends

* Black-box entry subcircuit for sky130_fd_sc_hd__a22oi_4 abstract view
.subckt sky130_fd_sc_hd__a22oi_4 A1 A2 B1 B2 VGND VNB VPB VPWR Y
.ends

* Black-box entry subcircuit for sky130_fd_sc_hd__nor3_4 abstract view
.subckt sky130_fd_sc_hd__nor3_4 A B C VGND VNB VPB VPWR Y
.ends

* Black-box entry subcircuit for sky130_fd_sc_hd__conb_1 abstract view
.subckt sky130_fd_sc_hd__conb_1 VGND VNB VPB VPWR HI LO
.ends

.subckt dac_digital_interface output_thermometer_o[69] output_thermometer_o[112] output_thermometer_o[244]
+ output_thermometer_o[83] output_thermometer_o[54] output_thermometer_o[166] output_thermometer_o[200]
+ output_thermometer_o[17] output_thermometer_o[195] output_thermometer_o[15] output_thermometer_o[130]
+ output_thermometer_o[229] output_thermometer_o[82] output_thermometer_o[4] output_thermometer_o[245]
+ output_thermometer_o[61] output_thermometer_o[197] output_thermometer_o[101] output_thermometer_o[251]
+ output_thermometer_o[213] output_thermometer_o[72] output_thermometer_o[43] output_thermometer_o[230]
+ output_thermometer_o[134] output_thermometer_o[115] output_thermometer_o[212] output_thermometer_o[151]
+ output_thermometer_o[236] output_thermometer_o[105] output_thermometer_o[174] output_thermometer_o[196]
+ output_thermometer_o[57] output_thermometer_o[76] output_thermometer_o[142] output_thermometer_o[241]
+ output_thermometer_o[110] output_thermometer_o[123] output_thermometer_o[81] output_thermometer_o[242]
+ output_thermometer_o[14] output_thermometer_o[218] output_thermometer_o[250] output_thermometer_o[94]
+ output_thermometer_o[129] output_thermometer_o[9] output_thermometer_o[117] output_thermometer_o[179]
+ output_thermometer_o[73] output_thermometer_o[86] output_thermometer_o[215] output_thermometer_o[182]
+ output_thermometer_o[12] output_thermometer_o[96] output_thermometer_o[132] output_thermometer_o[29]
+ output_thermometer_o[232] output_thermometer_o[191] output_thermometer_o[5] output_thermometer_o[33]
+ output_thermometer_o[161] output_thermometer_o[11] output_thermometer_o[160] output_thermometer_o[208]
+ output_thermometer_o[47] output_thermometer_o[187] output_thermometer_o[79] output_thermometer_o[59]
+ output_thermometer_o[116] output_thermometer_o[30] output_thermometer_o[194] output_thermometer_o[235]
+ output_thermometer_o[227] output_thermometer_o[97] output_thermometer_o[67] output_thermometer_o[188]
+ output_thermometer_o[31] output_thermometer_o[185] output_thermometer_o[20] output_thermometer_o[32]
+ output_thermometer_o[125] output_thermometer_o[7] output_thermometer_o[21] output_thermometer_o[221]
+ output_thermometer_o[190] output_thermometer_o[37] output_thermometer_o[74] output_thermometer_o[211]
+ output_thermometer_o[198] output_thermometer_o[226] output_thermometer_o[193] output_thermometer_o[249]
+ output_thermometer_o[84] output_thermometer_o[109] output_thermometer_o[253] output_thermometer_o[60]
+ output_thermometer_o[64] output_thermometer_o[23] output_thermometer_o[164] output_thermometer_o[243]
+ output_thermometer_o[137] output_thermometer_o[157] output_thermometer_o[119] output_thermometer_o[217]
+ output_thermometer_o[90] output_thermometer_o[163] output_thermometer_o[18] output_thermometer_o[93]
+ output_thermometer_o[26] output_thermometer_o[107] output_thermometer_o[144] output_thermometer_o[27]
+ output_thermometer_o[201] output_thermometer_o[162] output_thermometer_o[146] output_thermometer_o[168]
+ output_thermometer_o[53] output_thermometer_o[199] output_thermometer_o[147] output_thermometer_o[2]
+ output_thermometer_o[3] output_thermometer_o[136] output_thermometer_o[204] output_thermometer_o[8]
+ output_thermometer_o[102] output_thermometer_o[209] output_thermometer_o[234] output_thermometer_o[145]
+ output_thermometer_o[16] output_thermometer_o[158] output_thermometer_o[45] output_thermometer_o[87]
+ output_thermometer_o[149] output_thermometer_o[237] output_thermometer_o[224] output_thermometer_o[154]
+ output_thermometer_o[98] output_thermometer_o[19] output_thermometer_o[222] output_thermometer_o[181]
+ output_thermometer_o[35] output_thermometer_o[207] output_thermometer_o[124] output_thermometer_o[140]
+ output_thermometer_o[25] output_thermometer_o[126] output_thermometer_o[68] output_thermometer_o[143]
+ output_thermometer_o[175] output_thermometer_o[13] output_thermometer_o[178] output_thermometer_o[248]
+ output_thermometer_o[131] output_thermometer_o[95] output_thermometer_o[156] output_thermometer_o[89]
+ output_thermometer_o[176] output_thermometer_o[205] output_thermometer_o[62] output_thermometer_o[39]
+ output_thermometer_o[99] output_thermometer_o[41] output_thermometer_o[104] output_thermometer_o[169]
+ output_binary_o[0] output_thermometer_o[186] output_thermometer_o[180] output_thermometer_o[214]
+ output_thermometer_o[63] output_thermometer_o[206] output_thermometer_o[128] output_thermometer_o[228]
+ output_thermometer_o[55] output_thermometer_o[220] output_thermometer_o[111] output_thermometer_o[247]
+ output_thermometer_o[183] output_thermometer_o[219] output_thermometer_o[58] output_thermometer_o[114]
+ output_thermometer_o[252] output_thermometer_o[167] output_thermometer_o[49] output_thermometer_o[159]
+ output_thermometer_o[120] output_thermometer_o[78] output_thermometer_o[152] output_thermometer_o[189]
+ output_thermometer_o[103] output_thermometer_o[106] output_thermometer_o[233] output_thermometer_o[155]
+ output_thermometer_o[34] output_thermometer_o[138] output_thermometer_o[48] output_binary_o[1]
+ output_thermometer_o[225] output_thermometer_o[121] output_thermometer_o[10] output_thermometer_o[77]
+ output_thermometer_o[170] output_thermometer_o[141] output_thermometer_o[40] output_thermometer_o[216]
+ output_thermometer_o[139] output_thermometer_o[210] output_thermometer_o[42] output_thermometer_o[150]
+ output_thermometer_o[88] output_thermometer_o[240] output_thermometer_o[1] output_thermometer_o[66]
+ output_thermometer_o[36] output_thermometer_o[127] output_thermometer_o[177] output_thermometer_o[148]
+ output_thermometer_o[239] output_thermometer_o[255] output_thermometer_o[71] output_thermometer_o[133]
+ output_thermometer_o[91] output_thermometer_o[22] output_thermometer_o[65] output_thermometer_o[75]
+ output_thermometer_o[192] output_thermometer_o[51] output_thermometer_o[171] output_thermometer_o[254]
+ output_thermometer_o[28] output_thermometer_o[122] output_thermometer_o[70] output_thermometer_o[46]
+ output_thermometer_o[100] output_thermometer_o[56] output_thermometer_o[172] output_thermometer_o[135]
+ output_thermometer_o[184] output_thermometer_o[173] output_thermometer_o[85] output_thermometer_o[38]
+ output_thermometer_o[52] output_thermometer_o[238] output_thermometer_o[92] output_thermometer_o[165]
+ output_thermometer_o[223] output_thermometer_o[246] output_thermometer_o[118] output_thermometer_o[50]
+ output_thermometer_o[202] output_thermometer_o[113] output_thermometer_o[80] output_thermometer_o[231]
+ output_thermometer_o[153] output_thermometer_o[203] output_thermometer_o[6] output_thermometer_o[44]
+ output_thermometer_o[0] output_thermometer_o[108] output_thermometer_o[24] en_o
+ clk_i rst_ni randomise_en_i en_i input_binary_i[0] input_binary_i[1] input_binary_i[2]
+ input_binary_i[3] input_binary_i[4] input_binary_i[5] input_binary_i[6] input_binary_i[7]
+ input_binary_i[8] input_binary_i[9] VPWR VGND
X_3155_ _2756_/X _3365_/Q _3221_/S VGND VGND VPWR VPWR _3666_/D sky130_fd_sc_hd__mux2_1
X_3086_ _2550_/X _3434_/Q _3216_/S VGND VGND VPWR VPWR _3597_/D sky130_fd_sc_hd__mux2_1
X_2106_ _2106_/A _2112_/B VGND VGND VPWR VPWR _3302_/D sky130_fd_sc_hd__nor2_1
XFILLER_54_269 VGND VGND VPWR VPWR sky130_fd_sc_hd__decap_6
XFILLER_54_258 VGND VGND VPWR VPWR sky130_fd_sc_hd__decap_6
X_2037_ _1916_/Y _2033_/X _1955_/X VGND VGND VPWR VPWR _3357_/D sky130_fd_sc_hd__a21oi_1
XFILLER_23_623 VGND VGND VPWR VPWR sky130_fd_sc_hd__decap_4
XFILLER_35_472 VGND VGND VPWR VPWR sky130_fd_sc_hd__fill_1
XFILLER_23_656 VGND VGND VPWR VPWR sky130_fd_sc_hd__decap_4
XFILLER_50_475 VGND VGND VPWR VPWR sky130_fd_sc_hd__fill_1
XFILLER_22_144 VGND VGND VPWR VPWR sky130_fd_sc_hd__decap_12
XFILLER_50_486 VGND VGND VPWR VPWR sky130_fd_sc_hd__decap_4
XFILLER_22_188 VGND VGND VPWR VPWR sky130_fd_sc_hd__decap_4
X_2939_ _2953_/A VGND VGND VPWR VPWR _2951_/A sky130_fd_sc_hd__buf_1
XFILLER_58_564 VGND VGND VPWR VPWR sky130_fd_sc_hd__decap_12
XFILLER_46_726 VGND VGND VPWR VPWR sky130_fd_sc_hd__decap_12
XFILLER_45_269 VGND VGND VPWR VPWR sky130_fd_sc_hd__fill_1
XFILLER_26_30 VGND VGND VPWR VPWR sky130_fd_sc_hd__decap_4
XFILLER_9_115 VGND VGND VPWR VPWR sky130_fd_sc_hd__decap_12
XFILLER_13_155 VGND VGND VPWR VPWR sky130_fd_sc_hd__decap_12
XFILLER_42_62 VGND VGND VPWR VPWR sky130_fd_sc_hd__fill_2
XFILLER_10_840 VGND VGND VPWR VPWR sky130_fd_sc_hd__fill_2
XFILLER_5_343 VGND VGND VPWR VPWR sky130_fd_sc_hd__decap_4
XFILLER_5_398 VGND VGND VPWR VPWR sky130_fd_sc_hd__fill_1
XFILLER_1_571 VGND VGND VPWR VPWR sky130_fd_sc_hd__decap_12
XFILLER_64_534 VGND VGND VPWR VPWR sky130_fd_sc_hd__decap_8
XFILLER_36_258 VGND VGND VPWR VPWR sky130_fd_sc_hd__decap_4
XFILLER_64_589 VGND VGND VPWR VPWR sky130_fd_sc_hd__decap_8
XFILLER_51_206 VGND VGND VPWR VPWR sky130_fd_sc_hd__fill_2
XFILLER_32_420 VGND VGND VPWR VPWR sky130_fd_sc_hd__decap_8
XFILLER_60_762 VGND VGND VPWR VPWR sky130_fd_sc_hd__decap_8
XFILLER_60_795 VGND VGND VPWR VPWR sky130_fd_sc_hd__decap_12
XFILLER_20_648 VGND VGND VPWR VPWR sky130_fd_sc_hd__fill_1
XFILLER_32_486 VGND VGND VPWR VPWR sky130_fd_sc_hd__decap_8
X_2724_ _2781_/A VGND VGND VPWR VPWR _2724_/X sky130_fd_sc_hd__clkbuf_2
X_2655_ _2659_/A _2659_/B _3335_/Q VGND VGND VPWR VPWR _2655_/X sky130_fd_sc_hd__and3_1
X_2586_ _3294_/Q _2576_/X _2578_/X _3231_/Q _2585_/X VGND VGND VPWR VPWR _2586_/X
+ sky130_fd_sc_hd__a221o_1
XFILLER_59_328 VGND VGND VPWR VPWR sky130_fd_sc_hd__fill_1
X_3207_ _2908_/X _3313_/Q _3209_/S VGND VGND VPWR VPWR _3718_/D sky130_fd_sc_hd__mux2_2
X_3138_ _2702_/X _3382_/Q _3202_/S VGND VGND VPWR VPWR _3649_/D sky130_fd_sc_hd__mux2_2
XFILLER_55_556 VGND VGND VPWR VPWR sky130_fd_sc_hd__decap_12
XFILLER_43_718 VGND VGND VPWR VPWR sky130_fd_sc_hd__decap_4
X_3069_ _2498_/X _3451_/Q _3195_/S VGND VGND VPWR VPWR _3580_/D sky130_fd_sc_hd__mux2_2
XFILLER_27_269 VGND VGND VPWR VPWR sky130_fd_sc_hd__decap_4
XPHY_916 VGND VPWR sky130_fd_sc_hd__tapvpwrvgnd_1
XPHY_927 VGND VPWR sky130_fd_sc_hd__tapvpwrvgnd_1
XPHY_905 VGND VPWR sky130_fd_sc_hd__tapvpwrvgnd_1
XPHY_949 VGND VPWR sky130_fd_sc_hd__tapvpwrvgnd_1
XPHY_938 VGND VPWR sky130_fd_sc_hd__tapvpwrvgnd_1
XFILLER_11_604 VGND VGND VPWR VPWR sky130_fd_sc_hd__decap_4
XFILLER_7_619 VGND VGND VPWR VPWR sky130_fd_sc_hd__decap_8
XFILLER_12_54 VGND VGND VPWR VPWR sky130_fd_sc_hd__decap_8
XFILLER_12_87 VGND VGND VPWR VPWR sky130_fd_sc_hd__decap_8
XFILLER_2_302 VGND VGND VPWR VPWR sky130_fd_sc_hd__decap_4
XFILLER_2_335 VGND VGND VPWR VPWR sky130_fd_sc_hd__decap_4
XFILLER_58_372 VGND VGND VPWR VPWR sky130_fd_sc_hd__decap_12
XFILLER_19_737 VGND VGND VPWR VPWR sky130_fd_sc_hd__decap_4
XFILLER_18_236 VGND VGND VPWR VPWR sky130_fd_sc_hd__decap_12
XFILLER_18_258 VGND VGND VPWR VPWR sky130_fd_sc_hd__decap_12
XFILLER_61_526 VGND VGND VPWR VPWR sky130_fd_sc_hd__decap_12
XFILLER_33_217 VGND VGND VPWR VPWR sky130_fd_sc_hd__decap_8
XFILLER_33_239 VGND VGND VPWR VPWR sky130_fd_sc_hd__decap_6
XFILLER_14_486 VGND VGND VPWR VPWR sky130_fd_sc_hd__decap_12
XFILLER_10_681 VGND VGND VPWR VPWR sky130_fd_sc_hd__decap_12
X_2440_ _3343_/Q _2426_/X _2428_/X _3280_/Q _2439_/X VGND VGND VPWR VPWR _2440_/X
+ sky130_fd_sc_hd__a221o_1
X_2371_ _2375_/A _2375_/B _3430_/Q VGND VGND VPWR VPWR _2371_/X sky130_fd_sc_hd__and3_1
XFILLER_68_125 VGND VGND VPWR VPWR sky130_fd_sc_hd__decap_4
XFILLER_64_331 VGND VGND VPWR VPWR sky130_fd_sc_hd__decap_3
XFILLER_52_515 VGND VGND VPWR VPWR sky130_fd_sc_hd__fill_2
XFILLER_37_589 VGND VGND VPWR VPWR sky130_fd_sc_hd__decap_4
XFILLER_52_537 VGND VGND VPWR VPWR sky130_fd_sc_hd__decap_4
XFILLER_24_228 VGND VGND VPWR VPWR sky130_fd_sc_hd__decap_3
XFILLER_24_239 VGND VGND VPWR VPWR sky130_fd_sc_hd__fill_1
XFILLER_33_740 VGND VGND VPWR VPWR sky130_fd_sc_hd__fill_1
X_3756_ _3761_/CLK _3756_/D hold1/X VGND VGND VPWR VPWR _3757_/D sky130_fd_sc_hd__dfrtp_1
X_2707_ _2707_/A VGND VGND VPWR VPWR _2707_/X sky130_fd_sc_hd__clkbuf_2
X_3687_ _3739_/CLK _3687_/D VGND VGND VPWR VPWR _3687_/Q sky130_fd_sc_hd__dfxtp_1
Xoutput242 _3608_/Q VGND VGND VPWR VPWR output_thermometer_o[122] sky130_fd_sc_hd__clkbuf_2
Xoutput220 _3636_/Q VGND VGND VPWR VPWR output_thermometer_o[150] sky130_fd_sc_hd__clkbuf_2
X_2638_ _3277_/Q _2633_/X _2634_/X _3468_/Q _2637_/X VGND VGND VPWR VPWR _2638_/X
+ sky130_fd_sc_hd__a221o_1
Xoutput253 _3538_/Q VGND VGND VPWR VPWR output_thermometer_o[52] sky130_fd_sc_hd__clkbuf_2
Xoutput231 _3557_/Q VGND VGND VPWR VPWR output_thermometer_o[71] sky130_fd_sc_hd__clkbuf_2
Xoutput264 _3717_/Q VGND VGND VPWR VPWR output_thermometer_o[231] sky130_fd_sc_hd__clkbuf_2
X_2569_ _2643_/A VGND VGND VPWR VPWR _2629_/A sky130_fd_sc_hd__clkbuf_4
XFILLER_68_692 VGND VGND VPWR VPWR sky130_fd_sc_hd__decap_4
XFILLER_67_180 VGND VGND VPWR VPWR sky130_fd_sc_hd__decap_8
XFILLER_16_707 VGND VGND VPWR VPWR sky130_fd_sc_hd__decap_6
XFILLER_55_364 VGND VGND VPWR VPWR sky130_fd_sc_hd__decap_12
XFILLER_43_548 VGND VGND VPWR VPWR sky130_fd_sc_hd__decap_4
XPHY_702 VGND VPWR sky130_fd_sc_hd__tapvpwrvgnd_1
XPHY_713 VGND VPWR sky130_fd_sc_hd__tapvpwrvgnd_1
XPHY_735 VGND VPWR sky130_fd_sc_hd__tapvpwrvgnd_1
XPHY_724 VGND VPWR sky130_fd_sc_hd__tapvpwrvgnd_1
XFILLER_11_423 VGND VGND VPWR VPWR sky130_fd_sc_hd__decap_4
XFILLER_23_272 VGND VGND VPWR VPWR sky130_fd_sc_hd__decap_12
XFILLER_24_795 VGND VGND VPWR VPWR sky130_fd_sc_hd__decap_12
XPHY_746 VGND VPWR sky130_fd_sc_hd__tapvpwrvgnd_1
XPHY_757 VGND VPWR sky130_fd_sc_hd__tapvpwrvgnd_1
XPHY_768 VGND VPWR sky130_fd_sc_hd__tapvpwrvgnd_1
XPHY_779 VGND VPWR sky130_fd_sc_hd__tapvpwrvgnd_1
XFILLER_48_50 VGND VGND VPWR VPWR sky130_fd_sc_hd__decap_4
XFILLER_65_106 VGND VGND VPWR VPWR sky130_fd_sc_hd__decap_8
XFILLER_59_670 VGND VGND VPWR VPWR sky130_fd_sc_hd__decap_12
XFILLER_19_545 VGND VGND VPWR VPWR sky130_fd_sc_hd__decap_4
XFILLER_0_46 VGND VGND VPWR VPWR sky130_fd_sc_hd__decap_4
XFILLER_61_367 VGND VGND VPWR VPWR sky130_fd_sc_hd__decap_6
X_1940_ _1940_/A VGND VGND VPWR VPWR _2089_/B sky130_fd_sc_hd__inv_2
X_1871_ _1871_/A VGND VGND VPWR VPWR _1871_/X sky130_fd_sc_hd__buf_2
XFILLER_30_754 VGND VGND VPWR VPWR sky130_fd_sc_hd__fill_1
X_3610_ _3711_/CLK _3610_/D VGND VGND VPWR VPWR _3610_/Q sky130_fd_sc_hd__dfxtp_1
X_3541_ _3738_/CLK _3541_/D VGND VGND VPWR VPWR _3541_/Q sky130_fd_sc_hd__dfxtp_1
XFILLER_50_3 VGND VGND VPWR VPWR sky130_fd_sc_hd__decap_12
X_3472_ _3479_/CLK _3472_/D VGND VGND VPWR VPWR _3472_/Q sky130_fd_sc_hd__dfxtp_1
X_2423_ _2435_/A _2435_/B _3412_/Q VGND VGND VPWR VPWR _2423_/X sky130_fd_sc_hd__and3_1
X_2354_ _2410_/A VGND VGND VPWR VPWR _2354_/X sky130_fd_sc_hd__clkbuf_2
XFILLER_57_607 VGND VGND VPWR VPWR sky130_fd_sc_hd__decap_12
XFILLER_29_309 VGND VGND VPWR VPWR sky130_fd_sc_hd__fill_1
X_2285_ _2285_/A _2285_/B _3458_/Q VGND VGND VPWR VPWR _2285_/X sky130_fd_sc_hd__and3_1
XFILLER_65_640 VGND VGND VPWR VPWR sky130_fd_sc_hd__decap_6
XFILLER_56_139 VGND VGND VPWR VPWR sky130_fd_sc_hd__decap_4
XFILLER_37_320 VGND VGND VPWR VPWR sky130_fd_sc_hd__decap_12
XFILLER_53_835 VGND VGND VPWR VPWR sky130_fd_sc_hd__decap_6
XFILLER_52_367 VGND VGND VPWR VPWR sky130_fd_sc_hd__decap_4
XFILLER_40_529 VGND VGND VPWR VPWR sky130_fd_sc_hd__decap_6
XFILLER_21_754 VGND VGND VPWR VPWR sky130_fd_sc_hd__decap_12
XFILLER_4_408 VGND VGND VPWR VPWR sky130_fd_sc_hd__decap_4
X_3739_ _3739_/CLK _3739_/D VGND VGND VPWR VPWR _3739_/Q sky130_fd_sc_hd__dfxtp_1
XFILLER_48_618 VGND VGND VPWR VPWR sky130_fd_sc_hd__decap_4
XFILLER_62_109 VGND VGND VPWR VPWR sky130_fd_sc_hd__decap_12
XFILLER_55_150 VGND VGND VPWR VPWR sky130_fd_sc_hd__decap_8
XFILLER_18_64 VGND VGND VPWR VPWR sky130_fd_sc_hd__decap_12
XFILLER_55_172 VGND VGND VPWR VPWR sky130_fd_sc_hd__decap_4
XFILLER_43_323 VGND VGND VPWR VPWR sky130_fd_sc_hd__decap_4
XPHY_510 VGND VPWR sky130_fd_sc_hd__tapvpwrvgnd_1
XFILLER_34_30 VGND VGND VPWR VPWR sky130_fd_sc_hd__decap_4
XFILLER_24_581 VGND VGND VPWR VPWR sky130_fd_sc_hd__decap_12
XPHY_521 VGND VPWR sky130_fd_sc_hd__tapvpwrvgnd_1
XPHY_532 VGND VPWR sky130_fd_sc_hd__tapvpwrvgnd_1
XPHY_543 VGND VPWR sky130_fd_sc_hd__tapvpwrvgnd_1
XPHY_1120 VGND VPWR sky130_fd_sc_hd__tapvpwrvgnd_1
XPHY_1131 VGND VPWR sky130_fd_sc_hd__tapvpwrvgnd_1
XPHY_554 VGND VPWR sky130_fd_sc_hd__tapvpwrvgnd_1
XPHY_565 VGND VPWR sky130_fd_sc_hd__tapvpwrvgnd_1
XPHY_576 VGND VPWR sky130_fd_sc_hd__tapvpwrvgnd_1
XPHY_587 VGND VPWR sky130_fd_sc_hd__tapvpwrvgnd_1
XFILLER_34_74 VGND VGND VPWR VPWR sky130_fd_sc_hd__fill_1
XPHY_1164 VGND VPWR sky130_fd_sc_hd__tapvpwrvgnd_1
XPHY_1153 VGND VPWR sky130_fd_sc_hd__tapvpwrvgnd_1
XPHY_1142 VGND VPWR sky130_fd_sc_hd__tapvpwrvgnd_1
XFILLER_8_714 VGND VGND VPWR VPWR sky130_fd_sc_hd__decap_12
XPHY_598 VGND VPWR sky130_fd_sc_hd__tapvpwrvgnd_1
XFILLER_11_286 VGND VGND VPWR VPWR sky130_fd_sc_hd__decap_4
XFILLER_59_93 VGND VGND VPWR VPWR sky130_fd_sc_hd__decap_12
X_2070_ _2076_/A _2070_/B VGND VGND VPWR VPWR _3331_/D sky130_fd_sc_hd__nor2_1
XFILLER_47_640 VGND VGND VPWR VPWR sky130_fd_sc_hd__decap_12
XFILLER_19_397 VGND VGND VPWR VPWR sky130_fd_sc_hd__fill_2
XFILLER_35_835 VGND VGND VPWR VPWR sky130_fd_sc_hd__decap_6
XFILLER_34_367 VGND VGND VPWR VPWR sky130_fd_sc_hd__decap_4
X_2972_ _3754_/D _2972_/B VGND VGND VPWR VPWR _3749_/D sky130_fd_sc_hd__xnor2_1
XFILLER_34_378 VGND VGND VPWR VPWR sky130_fd_sc_hd__fill_1
X_1923_ _1923_/A VGND VGND VPWR VPWR _3418_/D sky130_fd_sc_hd__buf_1
XFILLER_30_551 VGND VGND VPWR VPWR sky130_fd_sc_hd__fill_2
X_1854_ _1826_/X _1853_/Y _1845_/X VGND VGND VPWR VPWR _3445_/D sky130_fd_sc_hd__o21ai_1
X_1785_ _1850_/A _1737_/B _1887_/A VGND VGND VPWR VPWR _2164_/B sky130_fd_sc_hd__a21oi_4
X_3524_ _3741_/CLK _3524_/D VGND VGND VPWR VPWR _3524_/Q sky130_fd_sc_hd__dfxtp_1
X_3455_ _3724_/CLK _3455_/D VGND VGND VPWR VPWR _3455_/Q sky130_fd_sc_hd__dfxtp_1
X_2406_ _2406_/A VGND VGND VPWR VPWR _2417_/B sky130_fd_sc_hd__clkbuf_2
X_3386_ _3482_/CLK _3386_/D VGND VGND VPWR VPWR _3386_/Q sky130_fd_sc_hd__dfxtp_1
X_2337_ _2341_/A _2341_/B _3440_/Q VGND VGND VPWR VPWR _2337_/X sky130_fd_sc_hd__and3_1
X_2268_ _2329_/A VGND VGND VPWR VPWR _2285_/A sky130_fd_sc_hd__buf_1
XFILLER_65_481 VGND VGND VPWR VPWR sky130_fd_sc_hd__decap_12
X_2199_ input2/X _3763_/D VGND VGND VPWR VPWR _3747_/D sky130_fd_sc_hd__and2_1
XFILLER_37_172 VGND VGND VPWR VPWR sky130_fd_sc_hd__decap_8
XFILLER_38_695 VGND VGND VPWR VPWR sky130_fd_sc_hd__decap_4
XFILLER_53_676 VGND VGND VPWR VPWR sky130_fd_sc_hd__decap_8
XFILLER_25_389 VGND VGND VPWR VPWR sky130_fd_sc_hd__decap_8
XFILLER_40_315 VGND VGND VPWR VPWR sky130_fd_sc_hd__decap_4
XFILLER_21_584 VGND VGND VPWR VPWR sky130_fd_sc_hd__decap_12
XFILLER_4_249 VGND VGND VPWR VPWR sky130_fd_sc_hd__decap_8
XFILLER_20_87 VGND VGND VPWR VPWR sky130_fd_sc_hd__decap_4
XFILLER_48_404 VGND VGND VPWR VPWR sky130_fd_sc_hd__fill_2
XFILLER_17_835 VGND VGND VPWR VPWR sky130_fd_sc_hd__decap_6
XFILLER_44_643 VGND VGND VPWR VPWR sky130_fd_sc_hd__decap_4
XFILLER_43_142 VGND VGND VPWR VPWR sky130_fd_sc_hd__decap_4
XFILLER_43_197 VGND VGND VPWR VPWR sky130_fd_sc_hd__decap_12
XPHY_340 VGND VPWR sky130_fd_sc_hd__tapvpwrvgnd_1
XPHY_351 VGND VPWR sky130_fd_sc_hd__tapvpwrvgnd_1
XFILLER_31_337 VGND VGND VPWR VPWR sky130_fd_sc_hd__decap_4
XFILLER_61_50 VGND VGND VPWR VPWR sky130_fd_sc_hd__decap_6
XFILLER_12_551 VGND VGND VPWR VPWR sky130_fd_sc_hd__decap_8
XPHY_362 VGND VPWR sky130_fd_sc_hd__tapvpwrvgnd_1
XPHY_373 VGND VPWR sky130_fd_sc_hd__tapvpwrvgnd_1
XPHY_384 VGND VPWR sky130_fd_sc_hd__tapvpwrvgnd_1
XPHY_395 VGND VPWR sky130_fd_sc_hd__tapvpwrvgnd_1
XFILLER_12_595 VGND VGND VPWR VPWR sky130_fd_sc_hd__decap_4
XANTENNA_5 _2556_/A VGND VGND VPWR VPWR sky130_fd_sc_hd__diode_2
XFILLER_4_750 VGND VGND VPWR VPWR sky130_fd_sc_hd__decap_12
XFILLER_4_783 VGND VGND VPWR VPWR sky130_fd_sc_hd__decap_12